MATPOWER/CaliforniaTestSystem_modified.m
%% MATPOWER Case Format : Version 2
function mpc = cal_grid_dcopf_v2
mpc.version = '2';

%%-----  Power Flow Data  -----%%
%% system MVA base
mpc.baseMVA = 100;
%% bus data
%    bus_i    type    Pd    Qd    Gs    Bs    area    Vm    Va    baseKV    zone    Vmax    Vmin
mpc.bus = [
	1	1	56.6305477	16.8298619	0.0	0.0	0	1.0	-1.9398059299999997	115.0	0	1.06	0.94				
	2	1	12.1925924	2.53165799	0.0	0.0	0	1.0	-1.7335246200000003	66.0	0	1.06	0.94				
	3	1	0.0	0.0	0.0	0.0	0	1.0	-1.76337868	66.0	0	1.06	0.94				
	4	1	22.7970837	8.37324562	0.0	0.0	0	1.0	-1.80275679	230.0	0	1.06	0.94				
	5	1	115.972748	31.4555386	0.0	0.0	0	1.0	-1.8971778900000003	115.0	0	1.06	0.94				
	6	2	0.0	0.0	0.0	0.0	0	1.0	-3.0285089200000006	66.0	0	1.06	0.94				
	7	1	130.119494	39.2228971	0.0	0.0	0	1.0	-1.88482693	115.0	0	1.06	0.94				
	8	1	65.7624416	18.1186025	0.0	0.0	0	1.0	-1.9329511700000002	115.0	0	1.06	0.94				
	9	1	8.12221285	3.03705964	0.0	0.0	0	1.0	-1.8389517500000003	115.0	0	1.06	0.94				
	10	1	24.9280246	6.611186100000001	0.0	0.0	0	1.0	-1.90881322	115.0	0	1.06	0.94				
	11	1	6.289233830000001	1.45492275	0.0	0.0	0	1.0	-1.87029284	115.0	0	1.06	0.94				
	12	1	5.86119021	1.80931205	0.0	0.0	0	1.0	-1.83241485	66.0	0	1.06	0.94				
	13	1	35.1203816	11.5633226	0.0	0.0	0	1.0	-1.89699598	115.0	0	1.06	0.94				
	14	1	38.5284297	11.9347169	0.0	0.0	0	1.0	-1.8614509000000001	66.0	0	1.06	0.94				
	15	1	24.9681545	8.94459912	0.0	0.0	0	1.0	-1.8144838	66.0	0	1.06	0.94				
	16	2	22.5232238	6.49471098	0.0	0.0	0	1.0	-1.86240222	66.0	0	1.06	0.94				
	17	2	46.4927618	13.7259567	0.0	0.0	0	1.0	-1.84519619	66.0	0	1.06	0.94				
	18	1	0.0	0.0	0.0	0.0	0	1.0	-1.63023015	230.0	0	1.06	0.94				
	19	2	47.2000621	12.1442492	0.0	0.0	0	1.0	-1.9164254099999998	115.0	0	1.06	0.94				
	20	1	72.6881705	23.0951179	0.0	0.0	0	1.0	-1.93845689	115.0	0	1.06	0.94				
	21	1	12.790079099999998	4.39501833	0.0	0.0	0	1.0	-1.8260134900000002	115.0	0	1.06	0.94				
	22	1	8.30597002	2.70063263	0.0	0.0	0	1.0	-1.8410521500000003	115.0	0	1.06	0.94				
	23	1	0.0	0.0	0.0	0.0	0	1.0	-1.7775493100000002	66.0	0	1.06	0.94				
	24	1	8.13624283	2.6918989	0.0	0.0	0	1.0	-1.8414864000000002	66.0	0	1.06	0.94				
	25	1	4.42639756	1.61663677	0.0	0.0	0	1.0	-1.8811082900000002	66.0	0	1.06	0.94				
	26	1	5.37260916	1.55738785	0.0	0.0	0	1.0	-1.86452695	66.0	0	1.06	0.94				
	27	1	5.26240942	1.7837502200000002	0.0	0.0	0	1.0	-1.87401788	66.0	0	1.06	0.94				
	28	2	0.0	0.0	0.0	0.0	0	1.0	-1.85560919	66.0	0	1.06	0.94				
	29	1	8.16231537	2.40540718	0.0	0.0	0	1.0	-1.8643913600000002	66.0	0	1.06	0.94				
	30	1	4.57603438	1.57384767	0.0	0.0	0	1.0	-1.8687985599999999	66.0	0	1.06	0.94				
	31	1	2.58340987	0.908727711	0.0	0.0	0	1.0	-1.90719102	66.0	0	1.06	0.94				
	32	2	0.0	0.0	0.0	0.0	0	1.0	-1.85269029	115.0	0	1.06	0.94				
	33	1	4.94620865	1.8065810299999998	0.0	0.0	0	1.0	-1.8370349300000002	66.0	0	1.06	0.94				
	34	1	0.0	0.0	0.0	0.0	0	1.0	-1.79136128	115.0	0	1.06	0.94				
	35	1	0.0	0.0	0.0	0.0	0	1.0	-1.9177870500000003	66.0	0	1.06	0.94				
	36	1	8.24989955	2.42602059	0.0	0.0	0	1.0	-2.17136225	66.0	0	1.06	0.94				
	37	1	12.896387500000001	2.83768363	0.0	0.0	0	1.0	-1.92179128	66.0	0	1.06	0.94				
	38	1	2.62467636	0.9556706229999999	0.0	0.0	0	1.0	-2.17595447	66.0	0	1.06	0.94				
	39	1	5.98058171	2.08841931	0.0	0.0	0	1.0	-0.195557869	115.0	0	1.06	0.94				
	40	1	0.0	0.0	0.0	0.0	0	1.0	-1.96189059	66.0	0	1.06	0.94				
	41	1	3.5026978100000004	1.20284334	0.0	0.0	0	1.0	-1.9865265200000002	66.0	0	1.06	0.94				
	42	1	4.98218492	1.5074445	0.0	0.0	0	1.0	-2.21990256	115.0	0	1.06	0.94				
	43	2	0.0	0.0	0.0	0.0	0	1.0	-1.9067350600000001	115.0	0	1.06	0.94				
	44	1	8.42753915	3.11061767	0.0	0.0	0	1.0	-1.9019514600000003	115.0	0	1.06	0.94				
	45	1	0.0	0.0	0.0	0.0	0	1.0	0.555613354	115.0	0	1.06	0.94				
	46	2	0.0	0.0	0.0	0.0	0	1.0	-1.867221	115.0	0	1.06	0.94				
	47	1	14.2293846	3.50808234	0.0	0.0	0	1.0	-1.9636666099999998	66.0	0	1.06	0.94				
	48	1	19.3326949	6.08459668	0.0	0.0	0	1.0	-1.9054192600000002	115.0	0	1.06	0.94				
	49	2	0.0	0.0	0.0	0.0	0	1.0	-1.9040247199999998	66.0	0	1.06	0.94				
	50	1	0.0	0.0	0.0	0.0	0	1.0	-1.9126274600000002	66.0	0	1.06	0.94				
	51	2	0.0	0.0	0.0	0.0	0	1.0	-2.17286691	66.0	0	1.06	0.94				
	52	1	2.09453206	0.752592196	0.0	0.0	0	1.0	-1.9057878899999998	115.0	0	1.06	0.94				
	53	1	4.63394452	1.28715016	0.0	0.0	0	1.0	-2.2161384	115.0	0	1.06	0.94				
	54	1	0.0	0.0	0.0	0.0	0	1.0	-1.8490807400000002	115.0	0	1.06	0.94				
	55	1	3.17523238	1.28323777	0.0	0.0	0	1.0	-1.82975354	66.0	0	1.06	0.94				
	56	1	8.27241654	2.44010369	0.0	0.0	0	1.0	-1.8423134800000003	115.0	0	1.06	0.94				
	57	1	0.0	0.0	0.0	0.0	0	1.0	-1.8389620500000001	66.0	0	1.06	0.94				
	58	1	0.0	0.0	0.0	0.0	0	1.0	-1.83817297	115.0	0	1.06	0.94				
	59	1	0.0	0.0	0.0	0.0	0	1.0	-1.74070941	230.0	0	1.06	0.94				
	60	2	0.0	0.0	0.0	0.0	0	1.0	-1.83817297	115.0	0	1.06	0.94				
	61	1	0.0	0.0	0.0	0.0	0	1.0	-1.82796839	66.0	0	1.06	0.94				
	62	1	0.0	0.0	0.0	0.0	0	1.0	-2.16988286	66.0	0	1.06	0.94				
	63	1	7.59149755	2.2616254	0.0	0.0	0	1.0	-2.1204573	66.0	0	1.06	0.94				
	64	1	6.697559729999999	1.97266917	0.0	0.0	0	1.0	-2.1810664	66.0	0	1.06	0.94				
	65	1	7.24963602	2.45097519	0.0	0.0	0	1.0	-2.17978042	66.0	0	1.06	0.94				
	66	1	0.0	0.0	0.0	0.0	0	1.0	-2.09891984	66.0	0	1.06	0.94				
	67	1	3.20898239	0.9088764770000001	0.0	0.0	0	1.0	-2.07085394	66.0	0	1.06	0.94				
	68	2	0.0	0.0	0.0	0.0	0	1.0	-2.1331414	66.0	0	1.06	0.94				
	69	1	18.9960297	6.26890899	0.0	0.0	0	1.0	-1.8732834100000002	115.0	0	1.06	0.94				
	70	1	2.44323077	0.9427515120000001	0.0	0.0	0	1.0	-1.70926769	66.0	0	1.06	0.94				
	71	2	0.0	0.0	0.0	0.0	0	1.0	-1.82216882	66.0	0	1.06	0.94				
	72	1	2.45799235	0.9888953169999999	0.0	0.0	0	1.0	-1.70022783	66.0	0	1.06	0.94				
	73	1	0.0	0.0	0.0	0.0	0	1.0	-1.82228258	66.0	0	1.06	0.94				
	74	1	58.3494814	12.1760605	0.0	0.0	0	1.0	-1.8863565	115.0	0	1.06	0.94				
	75	1	7.424550619999999	2.51135487	0.0	0.0	0	1.0	-1.86808469	115.0	0	1.06	0.94				
	76	2	0.0	0.0	0.0	0.0	0	1.0	-1.94185932	66.0	0	1.06	0.94				
	77	1	25.3356052	7.9602181100000005	0.0	0.0	0	1.0	-1.9535923599999998	66.0	0	1.06	0.94				
	78	1	3.9504617499999997	1.34712272	0.0	0.0	0	1.0	-1.71997808	66.0	0	1.06	0.94				
	79	1	0.0	0.0	0.0	0.0	0	1.0	-1.75423754	66.0	0	1.06	0.94				
	80	1	6.13758119	2.04565905	0.0	0.0	0	1.0	-1.8572525	115.0	0	1.06	0.94				
	81	1	3.96635966	1.60188639	0.0	0.0	0	1.0	-1.75930088	66.0	0	1.06	0.94				
	82	1	56.2658675	20.2789527	0.0	0.0	0	1.0	-1.86362063	115.0	0	1.06	0.94				
	83	1	8.2653928	1.8148775800000003	0.0	0.0	0	1.0	-1.8123717799999999	115.0	0	1.06	0.94				
	84	1	11.1321808	4.07691895	0.0	0.0	0	1.0	-1.8408755300000001	66.0	0	1.06	0.94				
	85	1	3.34525308	1.16007433	0.0	0.0	0	1.0	-1.8862139799999997	115.0	0	1.06	0.94				
	86	1	3.9856985499999995	1.33804365	0.0	0.0	0	1.0	-1.87311537	115.0	0	1.06	0.94				
	87	1	4.32136332	1.20650633	0.0	0.0	0	1.0	-1.8037213700000003	115.0	0	1.06	0.94				
	88	1	21.2907186	5.96381779	0.0	0.0	0	1.0	-1.9428407000000003	66.0	0	1.06	0.94				
	89	1	0.0	0.0	0.0	0.0	0	1.0	-1.70924869	66.0	0	1.06	0.94				
	90	2	4.23818639	1.41811241	0.0	0.0	0	1.0	-1.86138501	115.0	0	1.06	0.94				
	91	1	4.55639825	1.83593505	0.0	0.0	0	1.0	-1.75638805	66.0	0	1.06	0.94				
	92	1	60.402067599999995	19.9082342	0.0	0.0	0	1.0	-1.8859818200000003	115.0	0	1.06	0.94				
	93	1	43.8934269	10.9223832	0.0	0.0	0	1.0	-1.9637964900000002	115.0	0	1.06	0.94				
	94	1	10.220178	3.3751630300000004	0.0	0.0	0	1.0	-1.9598267500000002	66.0	0	1.06	0.94				
	95	1	34.4571316	11.2580904	0.0	0.0	0	1.0	-1.79268787	230.0	0	1.06	0.94				
	96	1	6.64334114	2.14152049	0.0	0.0	0	1.0	-1.9794283200000002	66.0	0	1.06	0.94				
	97	1	0.0	0.0	0.0	0.0	0	1.0	-1.92684101	66.0	0	1.06	0.94				
	98	1	0.0	0.0	0.0	0.0	0	1.0	-2.18807428	66.0	0	1.06	0.94				
	99	1	12.739746699999998	4.05430365	0.0	0.0	0	1.0	-1.89616984	115.0	0	1.06	0.94				
	100	1	8.40409689	2.47461992	0.0	0.0	0	1.0	-1.9766817600000002	115.0	0	1.06	0.94				
	101	1	14.9407967	4.50373314	0.0	0.0	0	1.0	-2.01410144	66.0	0	1.06	0.94				
	102	1	7.98153293	2.61116082	0.0	0.0	0	1.0	-2.06900491	66.0	0	1.06	0.94				
	103	2	0.0	0.0	0.0	0.0	0	1.0	-1.95932964	115.0	0	1.06	0.94				
	104	1	7.18614121	2.54613614	0.0	0.0	0	1.0	-2.00098907	66.0	0	1.06	0.94				
	105	2	0.0	0.0	0.0	0.0	0	1.0	-1.8666551100000002	66.0	0	1.06	0.94				
	106	2	5.40467383	1.5704352099999999	0.0	0.0	0	1.0	-1.8910542100000003	115.0	0	1.06	0.94				
	107	1	34.1070171	8.03254582	0.0	0.0	0	1.0	-0.549530416	115.0	0	1.06	0.94				
	108	2	33.1997529	10.35987	0.0	0.0	0	1.0	-0.645077915	115.0	0	1.06	0.94				
	109	1	1.69090942	0.645520634	0.0	0.0	0	1.0	-0.715003219	66.0	0	1.06	0.94				
	110	1	10.7401663	2.73404865	0.0	0.0	0	1.0	-0.888714083	66.0	0	1.06	0.94				
	111	2	0.0	0.0	0.0	0.0	0	1.0	-1.04280584	500.0	0	1.06	0.94				
	112	2	0.0	0.0	0.0	0.0	0	1.0	-0.8884993830000001	66.0	0	1.06	0.94				
	113	2	0.0	0.0	0.0	0.0	0	1.0	-0.574791361	115.0	0	1.06	0.94				
	114	1	11.5169429	2.14096752	0.0	0.0	0	1.0	-1.2655264300000002	66.0	0	1.06	0.94				
	115	1	7.03469662	2.30488372	0.0	0.0	0	1.0	-0.86596821	66.0	0	1.06	0.94				
	116	2	0.0	0.0	0.0	0.0	0	1.0	-1.14816583	66.0	0	1.06	0.94				
	117	1	12.9890765	4.19116165	0.0	0.0	0	1.0	-1.12673895	115.0	0	1.06	0.94				
	118	1	5.35696083	1.06867683	0.0	0.0	0	1.0	-1.13065103	66.0	0	1.06	0.94				
	119	1	15.5623155	4.77506887	0.0	0.0	0	1.0	-1.07524384	66.0	0	1.06	0.94				
	120	1	4.16106141	1.33904115	0.0	0.0	0	1.0	-0.725753296	66.0	0	1.06	0.94				
	121	2	0.0	0.0	0.0	0.0	0	1.0	-1.11845536	115.0	0	1.06	0.94				
	122	1	2.47614264	0.665391905	0.0	0.0	0	1.0	-1.19557871	66.0	0	1.06	0.94				
	123	1	5.2771966	1.8743563	0.0	0.0	0	1.0	-0.8165483540000001	66.0	0	1.06	0.94				
	124	1	11.6802862	2.92542483	0.0	0.0	0	1.0	-1.13473042	115.0	0	1.06	0.94				
	125	2	0.0	0.0	0.0	0.0	0	1.0	-0.4674285020000001	66.0	0	1.06	0.94				
	126	1	7.18418508	2.59634329	0.0	0.0	0	1.0	-0.886776199	66.0	0	1.06	0.94				
	127	1	0.0	0.0	0.0	0.0	0	1.0	-0.703017534	66.0	0	1.06	0.94				
	128	1	5.50750283	2.06631889	0.0	0.0	0	1.0	-0.7208555480000001	66.0	0	1.06	0.94				
	129	1	0.0	0.0	0.0	0.0	0	1.0	-1.19703367	66.0	0	1.06	0.94				
	130	1	0.0	0.0	0.0	0.0	0	1.0	-1.080986	66.0	0	1.06	0.94				
	131	2	0.0	0.0	0.0	0.0	0	1.0	-1.07516969	66.0	0	1.06	0.94				
	132	1	0.0	0.0	0.0	0.0	0	1.0	-0.992140878	66.0	0	1.06	0.94				
	133	1	2.9570706	0.898348595	0.0	0.0	0	1.0	-0.9081184530000002	66.0	0	1.06	0.94				
	134	1	0.0	0.0	0.0	0.0	0	1.0	-0.90762032	66.0	0	1.06	0.94				
	135	1	0.0	0.0	0.0	0.0	0	1.0	-0.579938309	115.0	0	1.06	0.94				
	136	1	10.5497909	2.64716879	0.0	0.0	0	1.0	-0.466449496	230.0	0	1.06	0.94				
	137	2	0.0	0.0	0.0	0.0	0	1.0	-1.18292184	66.0	0	1.06	0.94				
	138	2	0.0	0.0	0.0	0.0	0	1.0	-1.18591175	66.0	0	1.06	0.94				
	139	1	11.0947274	3.05884067	0.0	0.0	0	1.0	-0.919656984	66.0	0	1.06	0.94				
	140	1	19.5985169	5.92936968	0.0	0.0	0	1.0	-0.685852892	66.0	0	1.06	0.94				
	141	1	0.0	0.0	0.0	0.0	0	1.0	-0.6211202450000001	115.0	0	1.06	0.94				
	142	1	17.3481699	5.36443914	0.0	0.0	0	1.0	-0.61740432	115.0	0	1.06	0.94				
	143	1	0.0	0.0	0.0	0.0	0	1.0	-0.688998393	66.0	0	1.06	0.94				
	144	1	0.0	0.0	0.0	0.0	0	1.0	-1.07653913	66.0	0	1.06	0.94				
	145	2	0.0	0.0	0.0	0.0	0	1.0	-1.09144506	66.0	0	1.06	0.94				
	146	1	5.46823566	1.12666832	0.0	0.0	0	1.0	-0.618804677	66.0	0	1.06	0.94				
	147	1	86.760028	18.0278573	0.0	0.0	0	1.0	-0.581817574	115.0	0	1.06	0.94				
	148	1	12.719975699999999	3.1553552	0.0	0.0	0	1.0	-1.15168519	66.0	0	1.06	0.94				
	149	2	0.0	0.0	0.0	0.0	0	1.0	-1.11262553	66.0	0	1.06	0.94				
	150	1	9.2354472	3.1703263499999994	0.0	0.0	0	1.0	-1.1817598400000002	115.0	0	1.06	0.94				
	151	1	4.85304924	1.45562543	0.0	0.0	0	1.0	-2.0219455900000005	66.0	0	1.06	0.94				
	152	1	0.0	0.0	0.0	0.0	0	1.0	-1.9035901500000003	66.0	0	1.06	0.94				
	153	1	0.0	0.0	0.0	0.0	0	1.0	-1.94449753	66.0	0	1.06	0.94				
	154	1	5.77528991	1.6076352299999999	0.0	0.0	0	1.0	-1.78655474	230.0	0	1.06	0.94				
	155	2	0.0	0.0	0.0	0.0	0	1.0	-1.95171622	66.0	0	1.06	0.94				
	156	1	4.9370406	1.41840823	0.0	0.0	0	1.0	-2.0298776200000006	66.0	0	1.06	0.94				
	157	1	0.0	0.0	0.0	0.0	0	1.0	-2.01293091	66.0	0	1.06	0.94				
	158	2	0.0	0.0	0.0	0.0	0	1.0	-2.00639938	66.0	0	1.06	0.94				
	159	2	0.0	0.0	0.0	0.0	0	1.0	-2.18376599	66.0	0	1.06	0.94				
	160	1	12.6652367	3.7934997499999996	0.0	0.0	0	1.0	-2.1762775	66.0	0	1.06	0.94				
	161	1	4.01075163	1.41817901	0.0	0.0	0	1.0	-2.21592608	66.0	0	1.06	0.94				
	162	1	0.0	0.0	0.0	0.0	0	1.0	-2.18376599	66.0	0	1.06	0.94				
	163	1	0.0	0.0	0.0	0.0	0	1.0	-2.18376599	66.0	0	1.06	0.94				
	164	2	0.0	0.0	0.0	0.0	0	1.0	-2.03738056	115.0	0	1.06	0.94				
	165	2	0.0	0.0	0.0	0.0	0	1.0	-2.18268297	66.0	0	1.06	0.94				
	166	2	0.0	0.0	0.0	0.0	0	1.0	-3.04767069	66.0	0	1.06	0.94				
	167	1	3.8868750300000006	1.21421185	0.0	0.0	0	1.0	-3.05534857	66.0	0	1.06	0.94				
	168	1	0.0	0.0	0.0	0.0	0	1.0	-3.036599	66.0	0	1.06	0.94				
	169	1	9.93445559	3.71061931	0.0	0.0	0	1.0	-2.16264486	66.0	0	1.06	0.94				
	170	2	0.0	0.0	0.0	0.0	0	1.0	-2.16989294	66.0	0	1.06	0.94				
	171	1	5.16631547	1.65275168	0.0	0.0	0	1.0	-2.18038071	66.0	0	1.06	0.94				
	172	1	11.2415249	0.763814777	0.0	0.0	0	1.0	-2.182848	66.0	0	1.06	0.94				
	173	1	0.0	0.0	0.0	0.0	0	1.0	-2.19854475	66.0	0	1.06	0.94				
	174	1	5.61177034	2.11547476	0.0	0.0	0	1.0	-1.64445622	230.0	0	1.06	0.94				
	175	2	0.0	0.0	0.0	0.0	0	1.0	-2.20679647	66.0	0	1.06	0.94				
	176	1	0.0	0.0	0.0	0.0	0	1.0	-2.12090854	66.0	0	1.06	0.94				
	177	1	5.82997179	1.7152536	0.0	0.0	0	1.0	-2.20659424	66.0	0	1.06	0.94				
	178	1	0.0	0.0	0.0	0.0	0	1.0	-2.13308192	66.0	0	1.06	0.94				
	179	1	8.9952765	2.43885611	0.0	0.0	0	1.0	-1.8851127	66.0	0	1.06	0.94				
	180	1	8.63825524	3.12890573	0.0	0.0	0	1.0	-2.21073759	66.0	0	1.06	0.94				
	181	2	7.63892679	2.15730456	0.0	0.0	0	1.0	0.829116116	115.0	0	1.06	0.94				
	182	2	0.0	0.0	0.0	0.0	0	1.0	0.698453587	115.0	0	1.06	0.94				
	183	1	2.04354138	0.854943639	0.0	0.0	0	1.0	0.935785762	66.0	0	1.06	0.94				
	184	1	6.87473334	2.17697341	0.0	0.0	0	1.0	1.00473126	115.0	0	1.06	0.94				
	185	1	0.0	0.0	0.0	0.0	0	1.0	0.713644437	115.0	0	1.06	0.94				
	186	1	15.039292299999998	5.3216582	0.0	0.0	0	1.0	0.903843074	66.0	0	1.06	0.94				
	187	1	11.6706536	3.74795647	0.0	0.0	0	1.0	0.81955293	115.0	0	1.06	0.94				
	188	1	9.8672335	3.4273112	0.0	0.0	0	1.0	0.652624204	115.0	0	1.06	0.94				
	189	1	0.0	0.0	0.0	0.0	0	1.0	0.854676153	115.0	0	1.06	0.94				
	190	1	4.25502742	1.22368797	0.0	0.0	0	1.0	0.897244032	115.0	0	1.06	0.94				
	191	1	0.0	0.0	0.0	0.0	0	1.0	0.8983428200000001	115.0	0	1.06	0.94				
	192	2	0.0	0.0	0.0	0.0	0	1.0	0.854078988	66.0	0	1.06	0.94				
	193	1	1.61401553	0.515696338	0.0	0.0	0	1.0	0.9351431990000001	66.0	0	1.06	0.94				
	194	2	0.0	0.0	0.0	0.0	0	1.0	0.872314008	115.0	0	1.06	0.94				
	195	2	0.0	0.0	0.0	0.0	0	1.0	0.9722283470000002	66.0	0	1.06	0.94				
	196	1	0.0	0.0	0.0	0.0	0	1.0	0.921732718	115.0	0	1.06	0.94				
	197	1	5.44687009	2.06464213	0.0	0.0	0	1.0	0.850254041	115.0	0	1.06	0.94				
	198	2	0.0	0.0	0.0	0.0	0	1.0	0.765124565	115.0	0	1.06	0.94				
	199	1	6.20466944	2.04914783	0.0	0.0	0	1.0	0.820652507	66.0	0	1.06	0.94				
	200	2	0.0	0.0	0.0	0.0	0	1.0	0.828221651	66.0	0	1.06	0.94				
...
];

%% generator data
%    bus    Pg    Qg    Qmax    Qmin    Vg    mBase    status    Pmax    Pmin    Pc1    Pc2    Qc1min    Qc1max    Qc2min    Qc2max    ramp_agc    ramp_10    ramp_30    ramp_q    apf
mpc.gen = [
	745	4.0333628	0.0	18.7771429	-14.670714300000002	1.0	0.0	1	12.1	0	0.0	0.0	0.0	0.0	0.0	0.0	0.0	0.0	0.0	0.0	0.0				
	1804	0.0	0.0	34.5	-23.7	1.0	0.0	1	71.2	0	0.0	0.0	0.0	0.0	0.0	0.0	0.0	0.0	0.0	0.0	0.0				
	1804	0.0	0.0	34.5	-23.7	1.0	0.0	1	71.2	0	0.0	0.0	0.0	0.0	0.0	0.0	0.0	0.0	0.0	0.0	0.0				
	1964	0.366669117	0.0	18.7771429	-14.670714300000002	1.0	0.0	1	1.1	0	0.0	0.0	0.0	0.0	0.0	0.0	0.0	0.0	0.0	0.0	0.0				
	1964	0.366669117	0.0	18.7771429	-14.670714300000002	1.0	0.0	1	1.1	0	0.0	0.0	0.0	0.0	0.0	0.0	0.0	0.0	0.0	0.0	0.0				
	1964	0.366669117	0.0	18.7771429	-14.670714300000002	1.0	0.0	1	1.1	0	0.0	0.0	0.0	0.0	0.0	0.0	0.0	0.0	0.0	0.0	0.0				
	1360	0.166667613	0.0	18.7771429	-14.670714300000002	1.0	0.0	1	0.5	0	0.0	0.0	0.0	0.0	0.0	0.0	0.0	0.0	0.0	0.0	0.0				
	1360	0.166667613	0.0	18.7771429	-14.670714300000002	1.0	0.0	1	0.5	0	0.0	0.0	0.0	0.0	0.0	0.0	0.0	0.0	0.0	0.0	0.0				
	1745	0.333335524	0.0	18.7771429	-14.670714300000002	1.0	0.0	1	1.0	0	0.0	0.0	0.0	0.0	0.0	0.0	0.0	0.0	0.0	0.0	0.0				
	744	0.333335524	0.0	18.7771429	-14.670714300000002	1.0	0.0	1	1.0	0	0.0	0.0	0.0	0.0	0.0	0.0	0.0	0.0	0.0	0.0	0.0				
	1587	0.46666988099999995	0.0	18.7771429	-14.670714300000002	1.0	0.0	1	1.4	0	0.0	0.0	0.0	0.0	0.0	0.0	0.0	0.0	0.0	0.0	0.0				
	8022	39.30029	0.0	57.10000000000001	-39.3	1.0	0.0	1	117.9	0	0.0	0.0	0.0	0.0	0.0	0.0	0.0	0.0	0.0	0.0	0.0				
	2220	11.0000809	0.0	0.0	0.0	1.0	0.0	1	33.0	0	0.0	0.0	0.0	0.0	0.0	0.0	0.0	0.0	0.0	0.0	0.0				
	2220	11.0000809	0.0	0.0	0.0	1.0	0.0	1	33.0	0	0.0	0.0	0.0	0.0	0.0	0.0	0.0	0.0	0.0	0.0	0.0				
	1748	13.3334314	0.0	19.4	-13.3	1.0	0.0	1	40.0	0	0.0	0.0	0.0	0.0	0.0	0.0	0.0	0.0	0.0	0.0	0.0				
	8542	7.93339151	0.0	11.5	-7.9	1.0	0.0	1	23.8	0	0.0	0.0	0.0	0.0	0.0	0.0	0.0	0.0	0.0	0.0	0.0				
	8542	8.33339446	0.0	12.1	-8.3	1.0	0.0	1	25.0	0	0.0	0.0	0.0	0.0	0.0	0.0	0.0	0.0	0.0	0.0	0.0				
	8542	8.33339446	0.0	12.1	-8.3	1.0	0.0	1	25.0	0	0.0	0.0	0.0	0.0	0.0	0.0	0.0	0.0	0.0	0.0	0.0				
	8542	20.1001481	0.0	29.2	-20.1	1.0	0.0	1	60.3	0	0.0	0.0	0.0	0.0	0.0	0.0	0.0	0.0	0.0	0.0	0.0				
	8542	19.2001415	0.0	27.9	-19.2	1.0	0.0	1	57.60000000000001	0	0.0	0.0	0.0	0.0	0.0	0.0	0.0	0.0	0.0	0.0	0.0				
	1743	4.0333628	0.0	18.7771429	-14.670714300000002	1.0	0.0	1	12.1	0	0.0	0.0	0.0	0.0	0.0	0.0	0.0	0.0	0.0	0.0	0.0				
	1735	0.233334754	0.0	18.7771429	-14.670714300000002	1.0	0.0	1	0.7	0	0.0	0.0	0.0	0.0	0.0	0.0	0.0	0.0	0.0	0.0	0.0				
	1735	0.233334754	0.0	18.7771429	-14.670714300000002	1.0	0.0	1	0.7	0	0.0	0.0	0.0	0.0	0.0	0.0	0.0	0.0	0.0	0.0	0.0				
	8578	4.00002922	0.0	5.95	-4.1	1.0	0.0	1	12.0	0	0.0	0.0	0.0	0.0	0.0	0.0	0.0	0.0	0.0	0.0	0.0				
	8578	4.00002922	0.0	5.95	-4.1	1.0	0.0	1	12.0	0	0.0	0.0	0.0	0.0	0.0	0.0	0.0	0.0	0.0	0.0	0.0				
	8578	4.00002922	0.0	5.95	-4.1	1.0	0.0	1	12.0	0	0.0	0.0	0.0	0.0	0.0	0.0	0.0	0.0	0.0	0.0	0.0				
	8578	4.40003218	0.0	5.95	-4.1	1.0	0.0	1	13.200000000000001	0	0.0	0.0	0.0	0.0	0.0	0.0	0.0	0.0	0.0	0.0	0.0				
	744	7.33338707	0.0	16.5	-7.3	1.0	0.0	1	22.0	0	0.0	0.0	0.0	0.0	0.0	0.0	0.0	0.0	0.0	0.0	0.0				
	106	3.33335758	0.0	7.5	-3.35	1.0	0.0	1	10.0	0	0.0	0.0	0.0	0.0	0.0	0.0	0.0	0.0	0.0	0.0	0.0				
	106	3.33335758	0.0	7.5	-3.35	1.0	0.0	1	10.0	0	0.0	0.0	0.0	0.0	0.0	0.0	0.0	0.0	0.0	0.0	0.0				
	7778	10.7667458	0.0	15.6	-10.8	1.0	0.0	1	32.3	0	0.0	0.0	0.0	0.0	0.0	0.0	0.0	0.0	0.0	0.0	0.0				
	7778	11.700086	0.0	17.0	-11.7	1.0	0.0	1	35.1	0	0.0	0.0	0.0	0.0	0.0	0.0	0.0	0.0	0.0	0.0	0.0				
	7778	11.700086	0.0	17.0	-11.7	1.0	0.0	1	35.1	0	0.0	0.0	0.0	0.0	0.0	0.0	0.0	0.0	0.0	0.0	0.0				
	1634	22.5001659	0.0	32.7	-22.5	1.0	0.0	1	67.5	0	0.0	0.0	0.0	0.0	0.0	0.0	0.0	0.0	0.0	0.0	0.0				
	1634	22.5001659	0.0	32.7	-22.5	1.0	0.0	1	67.5	0	0.0	0.0	0.0	0.0	0.0	0.0	0.0	0.0	0.0	0.0	0.0				
	749	4.53336649	0.0	18.7771429	-14.670714300000002	1.0	0.0	1	13.600000000000001	0	0.0	0.0	0.0	0.0	0.0	0.0	0.0	0.0	0.0	0.0	0.0				
	339	0.86667277	0.0	18.7771429	-14.670714300000002	1.0	0.0	1	2.6	0	0.0	0.0	0.0	0.0	0.0	0.0	0.0	0.0	0.0	0.0	0.0				
	339	0.900006343	0.0	18.7771429	-14.670714300000002	1.0	0.0	1	2.7	0	0.0	0.0	0.0	0.0	0.0	0.0	0.0	0.0	0.0	0.0	0.0				
	1286	3.3333576100000006	0.0	18.7771429	-14.670714300000002	1.0	0.0	1	10.0	0	0.0	0.0	0.0	0.0	0.0	0.0	0.0	0.0	0.0	0.0	0.0				
	8427	3.3333576100000006	0.0	18.7771429	-14.670714300000002	1.0	0.0	1	10.0	0	0.0	0.0	0.0	0.0	0.0	0.0	0.0	0.0	0.0	0.0	0.0				
	170	16.7001233	0.0	12.5222222	-5.56666667	1.0	0.0	1	16.7	0	0.0	0.0	0.0	0.0	0.0	0.0	0.0	0.0	0.0	0.0	0.0				
	170	16.7001233	0.0	12.5222222	-5.56666667	1.0	0.0	1	16.7	0	0.0	0.0	0.0	0.0	0.0	0.0	0.0	0.0	0.0	0.0	0.0				
	170	16.7001233	0.0	12.5222222	-5.56666667	1.0	0.0	1	16.7	0	0.0	0.0	0.0	0.0	0.0	0.0	0.0	0.0	0.0	0.0	0.0				
	170	16.7001233	0.0	12.5222222	-5.56666667	1.0	0.0	1	16.7	0	0.0	0.0	0.0	0.0	0.0	0.0	0.0	0.0	0.0	0.0	0.0				
	170	16.7001233	0.0	12.5222222	-5.56666667	1.0	0.0	1	16.7	0	0.0	0.0	0.0	0.0	0.0	0.0	0.0	0.0	0.0	0.0	0.0				
	170	16.7001233	0.0	12.5222222	-5.56666667	1.0	0.0	1	16.7	0	0.0	0.0	0.0	0.0	0.0	0.0	0.0	0.0	0.0	0.0	0.0				
	170	16.7001233	0.0	12.5222222	-5.56666667	1.0	0.0	1	16.7	0	0.0	0.0	0.0	0.0	0.0	0.0	0.0	0.0	0.0	0.0	0.0				
	170	16.7001233	0.0	12.5222222	-5.56666667	1.0	0.0	1	16.7	0	0.0	0.0	0.0	0.0	0.0	0.0	0.0	0.0	0.0	0.0	0.0				
	170	16.7001233	0.0	12.5222222	-5.56666667	1.0	0.0	1	16.7	0	0.0	0.0	0.0	0.0	0.0	0.0	0.0	0.0	0.0	0.0	0.0				
	170	16.7001233	0.0	12.5222222	-5.56666667	1.0	0.0	1	16.7	0	0.0	0.0	0.0	0.0	0.0	0.0	0.0	0.0	0.0	0.0	0.0				
	1746	2.53335168	0.0	18.7771429	-14.670714300000002	1.0	0.0	1	7.6	0	0.0	0.0	0.0	0.0	0.0	0.0	0.0	0.0	0.0	0.0	0.0				
	1728	28.3668759	0.0	41.2	-28.4	1.0	0.0	1	85.1	0	0.0	0.0	0.0	0.0	0.0	0.0	0.0	0.0	0.0	0.0	0.0				
	1728	27.8335386	0.0	40.4	-27.800000000000004	1.0	0.0	1	83.5	0	0.0	0.0	0.0	0.0	0.0	0.0	0.0	0.0	0.0	0.0	0.0				
	1643	3.76669415	0.0	18.7771429	-14.670714300000002	1.0	0.0	1	11.3	0	0.0	0.0	0.0	0.0	0.0	0.0	0.0	0.0	0.0	0.0	0.0				
	1643	3.76669415	0.0	18.7771429	-14.670714300000002	1.0	0.0	1	11.3	0	0.0	0.0	0.0	0.0	0.0	0.0	0.0	0.0	0.0	0.0	0.0				
	1734	0.500003463	0.0	18.7771429	-14.670714300000002	1.0	0.0	1	1.5	0	0.0	0.0	0.0	0.0	0.0	0.0	0.0	0.0	0.0	0.0	0.0				
	615	1.13334137	0.0	18.7771429	-14.670714300000002	1.0	0.0	1	3.4000000000000004	0	0.0	0.0	0.0	0.0	0.0	0.0	0.0	0.0	0.0	0.0	0.0				
	7971	181.82405	0.0	144.4	-77.7	1.0	0.0	1	233.0	0	0.0	0.0	0.0	0.0	0.0	0.0	0.0	0.0	0.0	0.0	0.0				
	7971	181.82405	0.0	144.4	-77.7	1.0	0.0	1	233.0	0	0.0	0.0	0.0	0.0	0.0	0.0	0.0	0.0	0.0	0.0	0.0				
	7971	181.82405	0.0	144.4	-77.7	1.0	0.0	1	233.0	0	0.0	0.0	0.0	0.0	0.0	0.0	0.0	0.0	0.0	0.0	0.0				
	7971	181.82405	0.0	144.4	-77.7	1.0	0.0	1	233.0	0	0.0	0.0	0.0	0.0	0.0	0.0	0.0	0.0	0.0	0.0	0.0				
	7971	181.82405	0.0	144.4	-77.7	1.0	0.0	1	233.0	0	0.0	0.0	0.0	0.0	0.0	0.0	0.0	0.0	0.0	0.0	0.0				
	7971	181.82405	0.0	144.4	-77.7	1.0	0.0	1	233.0	0	0.0	0.0	0.0	0.0	0.0	0.0	0.0	0.0	0.0	0.0	0.0				
	60	1.20000852	0.0	18.7771429	-14.670714300000002	1.0	0.0	1	3.6000000000000005	0	0.0	0.0	0.0	0.0	0.0	0.0	0.0	0.0	0.0	0.0	0.0				
	1448	0.53333704	0.0	18.7771429	-14.670714300000002	1.0	0.0	1	1.6	0	0.0	0.0	0.0	0.0	0.0	0.0	0.0	0.0	0.0	0.0	0.0				
	8553	11.5334181	0.0	16.8	-11.5	1.0	0.0	1	34.6	0	0.0	0.0	0.0	0.0	0.0	0.0	0.0	0.0	0.0	0.0	0.0				
	8553	11.5334181	0.0	16.8	-11.5	1.0	0.0	1	34.6	0	0.0	0.0	0.0	0.0	0.0	0.0	0.0	0.0	0.0	0.0	0.0				
	1727	17.2334603	0.0	25.0	-17.2	1.0	0.0	1	51.7	0	0.0	0.0	0.0	0.0	0.0	0.0	0.0	0.0	0.0	0.0	0.0				
	1727	17.2334603	0.0	25.0	-17.2	1.0	0.0	1	51.7	0	0.0	0.0	0.0	0.0	0.0	0.0	0.0	0.0	0.0	0.0	0.0				
	1730	12.733427	0.0	21.6	-12.7	1.0	0.0	1	38.2	0	0.0	0.0	0.0	0.0	0.0	0.0	0.0	0.0	0.0	0.0	0.0				
	1730	12.733427	0.0	21.6	-12.7	1.0	0.0	1	38.2	0	0.0	0.0	0.0	0.0	0.0	0.0	0.0	0.0	0.0	0.0	0.0				
	1730	11.066748	0.0	24.9	-11.1	1.0	0.0	1	33.2	0	0.0	0.0	0.0	0.0	0.0	0.0	0.0	0.0	0.0	0.0	0.0				
	1730	10.6667451	0.0	24.0	-10.7	1.0	0.0	1	32.0	0	0.0	0.0	0.0	0.0	0.0	0.0	0.0	0.0	0.0	0.0	0.0				
	1729	13.200097099999999	0.0	19.2	-13.200000000000001	1.0	0.0	1	39.6	0	0.0	0.0	0.0	0.0	0.0	0.0	0.0	0.0	0.0	0.0	0.0				
	1729	13.200097099999999	0.0	19.2	-13.200000000000001	1.0	0.0	1	39.6	0	0.0	0.0	0.0	0.0	0.0	0.0	0.0	0.0	0.0	0.0	0.0				
	1501	1.46667714	0.0	18.7771429	-14.670714300000002	1.0	0.0	1	4.4	0	0.0	0.0	0.0	0.0	0.0	0.0	0.0	0.0	0.0	0.0	0.0				
	1501	0.666671338	0.0	18.7771429	-14.670714300000002	1.0	0.0	1	2.0	0	0.0	0.0	0.0	0.0	0.0	0.0	0.0	0.0	0.0	0.0	0.0				
	1501	1.00000706	0.0	18.7771429	-14.670714300000002	1.0	0.0	1	3.0	0	0.0	0.0	0.0	0.0	0.0	0.0	0.0	0.0	0.0	0.0	0.0				
	2220	21.0001548	0.0	30.5	-21.0	1.0	0.0	1	63.0	0	0.0	0.0	0.0	0.0	0.0	0.0	0.0	0.0	0.0	0.0	0.0				
	2220	21.0001548	0.0	30.5	-21.0	1.0	0.0	1	63.0	0	0.0	0.0	0.0	0.0	0.0	0.0	0.0	0.0	0.0	0.0	0.0				
	32	4.10002996	0.0	18.7771429	-14.670714300000002	1.0	0.0	1	12.3	0	0.0	0.0	0.0	0.0	0.0	0.0	0.0	0.0	0.0	0.0	0.0				
	32	9.90007271	0.0	14.400000000000002	-9.9	1.0	0.0	1	29.7	0	0.0	0.0	0.0	0.0	0.0	0.0	0.0	0.0	0.0	0.0	0.0				
	1745	2.23334946	0.0	18.7771429	-14.670714300000002	1.0	0.0	1	6.7	0	0.0	0.0	0.0	0.0	0.0	0.0	0.0	0.0	0.0	0.0	0.0				
	746	2.3333502	0.0	18.7771429	-14.670714300000002	1.0	0.0	1	7.000000000000001	0	0.0	0.0	0.0	0.0	0.0	0.0	0.0	0.0	0.0	0.0	0.0				
	746	1.2333421	0.0	18.7771429	-14.670714300000002	1.0	0.0	1	3.7000000000000006	0	0.0	0.0	0.0	0.0	0.0	0.0	0.0	0.0	0.0	0.0	0.0				
	746	2.20001588	0.0	18.7771429	-14.670714300000002	1.0	0.0	1	6.6000000000000005	0	0.0	0.0	0.0	0.0	0.0	0.0	0.0	0.0	0.0	0.0	0.0				
	1502	2.00001441	0.0	18.7771429	-14.670714300000002	1.0	0.0	1	6.0	0	0.0	0.0	0.0	0.0	0.0	0.0	0.0	0.0	0.0	0.0	0.0				
	1890	27.300201299999998	0.0	39.7	-27.3	1.0	0.0	1	81.9	0	0.0	0.0	0.0	0.0	0.0	0.0	0.0	0.0	0.0	0.0	0.0				
	8623	8.50006236	0.0	15.8	-8.5	1.0	0.0	1	25.5	0	0.0	0.0	0.0	0.0	0.0	0.0	0.0	0.0	0.0	0.0	0.0				
	8623	8.90006533	0.0	16.5	-8.9	1.0	0.0	1	26.700000000000003	0	0.0	0.0	0.0	0.0	0.0	0.0	0.0	0.0	0.0	0.0	0.0				
	1892	1.40000998	0.0	18.7771429	-14.670714300000002	1.0	0.0	1	4.2	0	0.0	0.0	0.0	0.0	0.0	0.0	0.0	0.0	0.0	0.0	0.0				
	1892	1.40000998	0.0	18.7771429	-14.670714300000002	1.0	0.0	1	4.2	0	0.0	0.0	0.0	0.0	0.0	0.0	0.0	0.0	0.0	0.0	0.0				
	1745	2.8333539	0.0	18.7771429	-14.670714300000002	1.0	0.0	1	8.5	0	0.0	0.0	0.0	0.0	0.0	0.0	0.0	0.0	0.0	0.0	0.0				
	1958	4.53336649	0.0	18.7771429	-14.670714300000002	1.0	0.0	1	13.600000000000001	0	0.0	0.0	0.0	0.0	0.0	0.0	0.0	0.0	0.0	0.0	0.0				
	1755	4.53336649	0.0	18.7771429	-14.670714300000002	1.0	0.0	1	13.600000000000001	0	0.0	0.0	0.0	0.0	0.0	0.0	0.0	0.0	0.0	0.0	0.0				
	1755	0.933339916	0.0	18.7771429	-14.670714300000002	1.0	0.0	1	2.8	0	0.0	0.0	0.0	0.0	0.0	0.0	0.0	0.0	0.0	0.0	0.0				
	1724	3.33335758	0.0	7.5	-3.35	1.0	0.0	1	10.0	0	0.0	0.0	0.0	0.0	0.0	0.0	0.0	0.0	0.0	0.0	0.0				
	1724	3.33335758	0.0	7.5	-3.35	1.0	0.0	1	10.0	0	0.0	0.0	0.0	0.0	0.0	0.0	0.0	0.0	0.0	0.0	0.0				
	8064	4.50003288	0.0	6.550000000000001	-4.5	1.0	0.0	1	13.5	0	0.0	0.0	0.0	0.0	0.0	0.0	0.0	0.0	0.0	0.0	0.0				
	8064	4.50003288	0.0	6.550000000000001	-4.5	1.0	0.0	1	13.5	0	0.0	0.0	0.0	0.0	0.0	0.0	0.0	0.0	0.0	0.0	0.0				
	8064	0.166667613	0.0	6.550000000000001	-4.5	1.0	0.0	1	0.5	0	0.0	0.0	0.0	0.0	0.0	0.0	0.0	0.0	0.0	0.0	0.0				
	8064	0.133334067	0.0	6.550000000000001	-4.5	1.0	0.0	1	0.4	0	0.0	0.0	0.0	0.0	0.0	0.0	0.0	0.0	0.0	0.0	0.0				
	8064	0.400002707	0.0	6.550000000000001	-4.5	1.0	0.0	1	1.2	0	0.0	0.0	0.0	0.0	0.0	0.0	0.0	0.0	0.0	0.0	0.0				
	1723	6.00004391	0.0	18.7771429	-14.670714300000002	1.0	0.0	1	18.0	0	0.0	0.0	0.0	0.0	0.0	0.0	0.0	0.0	0.0	0.0	0.0				
	1722	0.666671339	0.0	18.7771429	-14.670714300000002	1.0	0.0	1	2.0	0	0.0	0.0	0.0	0.0	0.0	0.0	0.0	0.0	0.0	0.0	0.0				
	1722	0.666671339	0.0	18.7771429	-14.670714300000002	1.0	0.0	1	2.0	0	0.0	0.0	0.0	0.0	0.0	0.0	0.0	0.0	0.0	0.0	0.0				
	8113	0.0	0.0	0.0	0.0	1.0	0.0	1	310.0	0	0.0	0.0	0.0	0.0	0.0	0.0	0.0	0.0	0.0	0.0	0.0				
	8113	0.0	0.0	0.0	0.0	1.0	0.0	1	310.0	0	0.0	0.0	0.0	0.0	0.0	0.0	0.0	0.0	0.0	0.0	0.0				
	8113	0.0	0.0	0.0	0.0	1.0	0.0	1	495.0	0	0.0	0.0	0.0	0.0	0.0	0.0	0.0	0.0	0.0	0.0	0.0				
	1632	5.26670527	0.0	5.325	-5.325	1.0	0.0	1	15.8	0	0.0	0.0	0.0	0.0	0.0	0.0	0.0	0.0	0.0	0.0	0.0				
	1632	5.26670527	0.0	5.325	-5.325	1.0	0.0	1	15.8	0	0.0	0.0	0.0	0.0	0.0	0.0	0.0	0.0	0.0	0.0	0.0				
	1632	5.83337612	0.0	5.325	-5.325	1.0	0.0	1	17.5	0	0.0	0.0	0.0	0.0	0.0	0.0	0.0	0.0	0.0	0.0	0.0				
	1632	5.83337612	0.0	5.325	-5.325	1.0	0.0	1	17.5	0	0.0	0.0	0.0	0.0	0.0	0.0	0.0	0.0	0.0	0.0	0.0				
	1644	11.3334167	0.0	0.0	0.0	1.0	0.0	1	34.0	0	0.0	0.0	0.0	0.0	0.0	0.0	0.0	0.0	0.0	0.0	0.0				
	1644	11.3334167	0.0	0.0	0.0	1.0	0.0	1	34.0	0	0.0	0.0	0.0	0.0	0.0	0.0	0.0	0.0	0.0	0.0	0.0				
	1644	11.3334167	0.0	0.0	0.0	1.0	0.0	1	34.0	0	0.0	0.0	0.0	0.0	0.0	0.0	0.0	0.0	0.0	0.0	0.0				
	1644	12.0000882	0.0	17.4	-12.0	1.0	0.0	1	36.0	0	0.0	0.0	0.0	0.0	0.0	0.0	0.0	0.0	0.0	0.0	0.0				
	1644	12.1667561	0.0	17.7	-12.2	1.0	0.0	1	36.5	0	0.0	0.0	0.0	0.0	0.0	0.0	0.0	0.0	0.0	0.0	0.0				
	1635	10.0000735	0.0	0.0	0.0	1.0	0.0	1	30.0	0	0.0	0.0	0.0	0.0	0.0	0.0	0.0	0.0	0.0	0.0	0.0				
	1635	15.0001104	0.0	21.8	-15.0	1.0	0.0	1	45.0	0	0.0	0.0	0.0	0.0	0.0	0.0	0.0	0.0	0.0	0.0	0.0				
	1632	18.3334684	0.0	5.325	-5.325	1.0	0.0	1	55.00000000000001	0	0.0	0.0	0.0	0.0	0.0	0.0	0.0	0.0	0.0	0.0	0.0				
	1632	18.3334684	0.0	5.325	-5.325	1.0	0.0	1	55.00000000000001	0	0.0	0.0	0.0	0.0	0.0	0.0	0.0	0.0	0.0	0.0	0.0				
	1631	0.833339198	0.0	18.7771429	-14.670714300000002	1.0	0.0	1	2.5	0	0.0	0.0	0.0	0.0	0.0	0.0	0.0	0.0	0.0	0.0	0.0				
	1631	0.833339198	0.0	18.7771429	-14.670714300000002	1.0	0.0	1	2.5	0	0.0	0.0	0.0	0.0	0.0	0.0	0.0	0.0	0.0	0.0	0.0				
	1631	0.766672054	0.0	18.7771429	-14.670714300000002	1.0	0.0	1	2.3	0	0.0	0.0	0.0	0.0	0.0	0.0	0.0	0.0	0.0	0.0	0.0				
	8381	0.933339916	0.0	18.7771429	-14.670714300000002	1.0	0.0	1	2.8	0	0.0	0.0	0.0	0.0	0.0	0.0	0.0	0.0	0.0	0.0	0.0				
	8381	0.933339916	0.0	18.7771429	-14.670714300000002	1.0	0.0	1	2.8	0	0.0	0.0	0.0	0.0	0.0	0.0	0.0	0.0	0.0	0.0	0.0				
	8381	0.933339916	0.0	18.7771429	-14.670714300000002	1.0	0.0	1	2.8	0	0.0	0.0	0.0	0.0	0.0	0.0	0.0	0.0	0.0	0.0	0.0				
	1629	0.333335524	0.0	18.7771429	-14.670714300000002	1.0	0.0	1	1.0	0	0.0	0.0	0.0	0.0	0.0	0.0	0.0	0.0	0.0	0.0	0.0				
	1629	0.333335524	0.0	18.7771429	-14.670714300000002	1.0	0.0	1	1.0	0	0.0	0.0	0.0	0.0	0.0	0.0	0.0	0.0	0.0	0.0	0.0				
	1629	0.66667134	0.0	18.7771429	-14.670714300000002	1.0	0.0	1	2.0	0	0.0	0.0	0.0	0.0	0.0	0.0	0.0	0.0	0.0	0.0	0.0				
	1629	0.733338483	0.0	18.7771429	-14.670714300000002	1.0	0.0	1	2.2	0	0.0	0.0	0.0	0.0	0.0	0.0	0.0	0.0	0.0	0.0	0.0				
	1629	0.66667134	0.0	18.7771429	-14.670714300000002	1.0	0.0	1	2.0	0	0.0	0.0	0.0	0.0	0.0	0.0	0.0	0.0	0.0	0.0	0.0				
	2312	0.66667134	0.0	18.7771429	-14.670714300000002	1.0	0.0	1	2.0	0	0.0	0.0	0.0	0.0	0.0	0.0	0.0	0.0	0.0	0.0	0.0				
	2312	0.833339198	0.0	18.7771429	-14.670714300000002	1.0	0.0	1	2.5	0	0.0	0.0	0.0	0.0	0.0	0.0	0.0	0.0	0.0	0.0	0.0				
	2247	0.533337043	0.0	18.7771429	-14.670714300000002	1.0	0.0	1	1.6	0	0.0	0.0	0.0	0.0	0.0	0.0	0.0	0.0	0.0	0.0	0.0				
	285	1.00000706	0.0	18.7771429	-14.670714300000002	1.0	0.0	1	3.0	0	0.0	0.0	0.0	0.0	0.0	0.0	0.0	0.0	0.0	0.0	0.0				
	285	1.00000706	0.0	18.7771429	-14.670714300000002	1.0	0.0	1	3.0	0	0.0	0.0	0.0	0.0	0.0	0.0	0.0	0.0	0.0	0.0	0.0				
	285	2.00001441	0.0	18.7771429	-14.670714300000002	1.0	0.0	1	6.0	0	0.0	0.0	0.0	0.0	0.0	0.0	0.0	0.0	0.0	0.0	0.0				
	990	0.500003463	0.0	18.7771429	-14.670714300000002	1.0	0.0	1	1.5	0	0.0	0.0	0.0	0.0	0.0	0.0	0.0	0.0	0.0	0.0	0.0				
	990	0.500003463	0.0	18.7771429	-14.670714300000002	1.0	0.0	1	1.5	0	0.0	0.0	0.0	0.0	0.0	0.0	0.0	0.0	0.0	0.0	0.0				
	8343	0.0	0.0	0.0	0.0	1.0	0.0	1	218.00000000000003	0	0.0	0.0	0.0	0.0	0.0	0.0	0.0	0.0	0.0	0.0	0.0				
	2313	0.766672054	0.0	18.7771429	-14.670714300000002	1.0	0.0	1	2.3	0	0.0	0.0	0.0	0.0	0.0	0.0	0.0	0.0	0.0	0.0	0.0				
	1663	6.833383379999999	0.0	9.9	-6.800000000000001	1.0	0.0	1	20.5	0	0.0	0.0	0.0	0.0	0.0	0.0	0.0	0.0	0.0	0.0	0.0				
	1663	6.60004833	0.0	18.7771429	-14.670714300000002	1.0	0.0	1	19.8	0	0.0	0.0	0.0	0.0	0.0	0.0	0.0	0.0	0.0	0.0	0.0				
	1662	2.20001589	0.0	3.2	-2.2	1.0	0.0	1	6.6000000000000005	0	0.0	0.0	0.0	0.0	0.0	0.0	0.0	0.0	0.0	0.0	0.0				
	1662	2.20001589	0.0	3.2	-2.2	1.0	0.0	1	6.6000000000000005	0	0.0	0.0	0.0	0.0	0.0	0.0	0.0	0.0	0.0	0.0	0.0				
	1662	2.20001589	0.0	3.2	-2.2	1.0	0.0	1	6.6000000000000005	0	0.0	0.0	0.0	0.0	0.0	0.0	0.0	0.0	0.0	0.0	0.0				
	1662	2.20001589	0.0	3.2	-2.2	1.0	0.0	1	6.6000000000000005	0	0.0	0.0	0.0	0.0	0.0	0.0	0.0	0.0	0.0	0.0	0.0				
	8347	52.30333029999999	0.0	30.5	-21.0	1.0	0.0	1	63.0	0	0.0	0.0	0.0	0.0	0.0	0.0	0.0	0.0	0.0	0.0	0.0				
	8347	52.30333029999999	0.0	30.5	-21.0	1.0	0.0	1	63.0	0	0.0	0.0	0.0	0.0	0.0	0.0	0.0	0.0	0.0	0.0	0.0				
	8347	52.30333029999999	0.0	30.5	-21.0	1.0	0.0	1	63.0	0	0.0	0.0	0.0	0.0	0.0	0.0	0.0	0.0	0.0	0.0	0.0				
	8347	52.30333029999999	0.0	30.5	-21.0	1.0	0.0	1	63.0	0	0.0	0.0	0.0	0.0	0.0	0.0	0.0	0.0	0.0	0.0	0.0				
	1636	31.666900300000002	0.0	0.0	0.0	1.0	0.0	1	95.0	0	0.0	0.0	0.0	0.0	0.0	0.0	0.0	0.0	0.0	0.0	0.0				
	1636	31.666900300000002	0.0	0.0	0.0	1.0	0.0	1	95.0	0	0.0	0.0	0.0	0.0	0.0	0.0	0.0	0.0	0.0	0.0	0.0				
	1483	0.0	0.0	499.5	-268.7	1.0	0.0	1	806.0	0	0.0	0.0	0.0	0.0	0.0	0.0	0.0	0.0	0.0	0.0	0.0				
	1483	0.0	0.0	499.5	-268.7	1.0	0.0	1	806.0	0	0.0	0.0	0.0	0.0	0.0	0.0	0.0	0.0	0.0	0.0	0.0				
	1602	3.76669416	0.0	18.7771429	-14.670714300000002	1.0	0.0	1	11.3	0	0.0	0.0	0.0	0.0	0.0	0.0	0.0	0.0	0.0	0.0	0.0				
	7747	0.0	0.0	0.0	0.0	1.0	0.0	1	163.2	0	0.0	0.0	0.0	0.0	0.0	0.0	0.0	0.0	0.0	0.0	0.0				
	7747	0.0	0.0	0.0	0.0	1.0	0.0	1	163.2	0	0.0	0.0	0.0	0.0	0.0	0.0	0.0	0.0	0.0	0.0	0.0				
	7747	0.0	0.0	0.0	0.0	1.0	0.0	1	495.0	0	0.0	0.0	0.0	0.0	0.0	0.0	0.0	0.0	0.0	0.0	0.0				
	2361	1.96668083	0.0	18.7771429	-14.670714300000002	1.0	0.0	1	5.9	0	0.0	0.0	0.0	0.0	0.0	0.0	0.0	0.0	0.0	0.0	0.0				
	2361	2.40001736	0.0	18.7771429	-14.670714300000002	1.0	0.0	1	7.200000000000001	0	0.0	0.0	0.0	0.0	0.0	0.0	0.0	0.0	0.0	0.0	0.0				
	7808	164.601216	0.0	123.50000000000001	-54.89999999999999	1.0	0.0	1	164.6	0	0.0	0.0	0.0	0.0	0.0	0.0	0.0	0.0	0.0	0.0	0.0				
	7808	164.601216	0.0	123.50000000000001	-54.89999999999999	1.0	0.0	1	164.6	0	0.0	0.0	0.0	0.0	0.0	0.0	0.0	0.0	0.0	0.0	0.0				
	7808	144.931702	0.0	141.9	-63.1	1.0	0.0	1	189.2	0	0.0	0.0	0.0	0.0	0.0	0.0	0.0	0.0	0.0	0.0	0.0				
	7808	164.601216	0.0	123.50000000000001	-54.89999999999999	1.0	0.0	1	164.6	0	0.0	0.0	0.0	0.0	0.0	0.0	0.0	0.0	0.0	0.0	0.0				
	7808	164.601216	0.0	123.50000000000001	-54.89999999999999	1.0	0.0	1	164.6	0	0.0	0.0	0.0	0.0	0.0	0.0	0.0	0.0	0.0	0.0	0.0				
	7808	144.931702	0.0	141.9	-63.1	1.0	0.0	1	189.2	0	0.0	0.0	0.0	0.0	0.0	0.0	0.0	0.0	0.0	0.0	0.0				
	1842	0.266668341	0.0	18.7771429	-14.670714300000002	1.0	0.0	1	0.8	0	0.0	0.0	0.0	0.0	0.0	0.0	0.0	0.0	0.0	0.0	0.0				
	1842	0.266668341	0.0	18.7771429	-14.670714300000002	1.0	0.0	1	0.8	0	0.0	0.0	0.0	0.0	0.0	0.0	0.0	0.0	0.0	0.0	0.0				
	1842	0.266668341	0.0	18.7771429	-14.670714300000002	1.0	0.0	1	0.8	0	0.0	0.0	0.0	0.0	0.0	0.0	0.0	0.0	0.0	0.0	0.0				
	1842	0.266668341	0.0	18.7771429	-14.670714300000002	1.0	0.0	1	0.8	0	0.0	0.0	0.0	0.0	0.0	0.0	0.0	0.0	0.0	0.0	0.0				
	1892	0.433336296	0.0	18.7771429	-14.670714300000002	1.0	0.0	1	1.3	0	0.0	0.0	0.0	0.0	0.0	0.0	0.0	0.0	0.0	0.0	0.0				
	1892	0.433336296	0.0	18.7771429	-14.670714300000002	1.0	0.0	1	1.3	0	0.0	0.0	0.0	0.0	0.0	0.0	0.0	0.0	0.0	0.0	0.0				
	2237	2.5000181	0.0	4.76666667	-2.63333333	1.0	0.0	1	7.5	0	0.0	0.0	0.0	0.0	0.0	0.0	0.0	0.0	0.0	0.0	0.0				
	2237	2.5000181	0.0	4.76666667	-2.63333333	1.0	0.0	1	7.5	0	0.0	0.0	0.0	0.0	0.0	0.0	0.0	0.0	0.0	0.0	0.0				
	2237	2.86668747	0.0	4.76666667	-2.63333333	1.0	0.0	1	8.6	0	0.0	0.0	0.0	0.0	0.0	0.0	0.0	0.0	0.0	0.0	0.0				
	1693	10.3114346	0.0	12.4	-6.7	1.0	0.0	1	20.0	0	0.0	0.0	0.0	0.0	0.0	0.0	0.0	0.0	0.0	0.0	0.0				
	1693	10.3114346	0.0	12.4	-6.7	1.0	0.0	1	20.0	0	0.0	0.0	0.0	0.0	0.0	0.0	0.0	0.0	0.0	0.0	0.0				
	1693	0.0	0.0	14.3	-7.7	1.0	0.0	1	23.0	0	0.0	0.0	0.0	0.0	0.0	0.0	0.0	0.0	0.0	0.0	0.0				
	1693	0.0	0.0	31.0	-16.7	1.0	0.0	1	50.0	0	0.0	0.0	0.0	0.0	0.0	0.0	0.0	0.0	0.0	0.0	0.0				
	1693	0.0	0.0	31.0	-16.7	1.0	0.0	1	50.0	0	0.0	0.0	0.0	0.0	0.0	0.0	0.0	0.0	0.0	0.0	0.0				
	1693	25.400187600000002	0.0	12.3	-8.5	1.0	0.0	1	25.4	0	0.0	0.0	0.0	0.0	0.0	0.0	0.0	0.0	0.0	0.0	0.0				
	1693	55.100407	0.0	26.700000000000003	-18.4	1.0	0.0	1	55.1	0	0.0	0.0	0.0	0.0	0.0	0.0	0.0	0.0	0.0	0.0	0.0				
	1693	52.5777524	0.0	35.6	-19.1	1.0	0.0	1	57.4	0	0.0	0.0	0.0	0.0	0.0	0.0	0.0	0.0	0.0	0.0	0.0				
	1446	26.133526	0.0	25.8	-25.8	1.0	0.0	1	78.4	0	0.0	0.0	0.0	0.0	0.0	0.0	0.0	0.0	0.0	0.0	0.0				
	1446	26.133526	0.0	25.8	-25.8	1.0	0.0	1	78.4	0	0.0	0.0	0.0	0.0	0.0	0.0	0.0	0.0	0.0	0.0	0.0				
	1446	13.1667635	0.0	13.0	-13.0	1.0	0.0	1	39.5	0	0.0	0.0	0.0	0.0	0.0	0.0	0.0	0.0	0.0	0.0	0.0				
	1446	13.1667635	0.0	13.0	-13.0	1.0	0.0	1	39.5	0	0.0	0.0	0.0	0.0	0.0	0.0	0.0	0.0	0.0	0.0	0.0				
	1446	12.1667561	0.0	17.7	-12.2	1.0	0.0	1	36.5	0	0.0	0.0	0.0	0.0	0.0	0.0	0.0	0.0	0.0	0.0	0.0				
	194	1.6666786100000002	0.0	18.7771429	-14.670714300000002	1.0	0.0	1	5.0	0	0.0	0.0	0.0	0.0	0.0	0.0	0.0	0.0	0.0	0.0	0.0				
	194	1.6666786100000002	0.0	18.7771429	-14.670714300000002	1.0	0.0	1	5.0	0	0.0	0.0	0.0	0.0	0.0	0.0	0.0	0.0	0.0	0.0	0.0				
	1719	1.60001146	0.0	18.7771429	-14.670714300000002	1.0	0.0	1	4.8	0	0.0	0.0	0.0	0.0	0.0	0.0	0.0	0.0	0.0	0.0	0.0				
	1719	1.46667714	0.0	18.7771429	-14.670714300000002	1.0	0.0	1	4.4	0	0.0	0.0	0.0	0.0	0.0	0.0	0.0	0.0	0.0	0.0	0.0				
	1718	3.3333576100000006	0.0	18.7771429	-14.670714300000002	1.0	0.0	1	10.0	0	0.0	0.0	0.0	0.0	0.0	0.0	0.0	0.0	0.0	0.0	0.0				
	1718	3.2000232900000003	0.0	18.7771429	-14.670714300000002	1.0	0.0	1	9.6	0	0.0	0.0	0.0	0.0	0.0	0.0	0.0	0.0	0.0	0.0	0.0				
	1528	5.50004029	0.0	12.4	-5.5	1.0	0.0	1	16.5	0	0.0	0.0	0.0	0.0	0.0	0.0	0.0	0.0	0.0	0.0	0.0				
	1528	5.50004029	0.0	12.4	-5.5	1.0	0.0	1	16.5	0	0.0	0.0	0.0	0.0	0.0	0.0	0.0	0.0	0.0	0.0	0.0				
	7751	18.4826212	0.0	21.4	-11.5	1.0	0.0	1	34.5	0	0.0	0.0	0.0	0.0	0.0	0.0	0.0	0.0	0.0	0.0	0.0				
...
];

%% branch data
%    f_bus    t_bus    r    x    b    rateA    rateB    rateC    ratio    angle    status    angmin    angmax
mpc.branch = [
1	2410	0	0.0002	0	175	0	0	0	0	1	-60.0001	60.0001
2410	20	0.0009	0.0075	0.0023	437	0	0	0	0	1	-60.0001	60.0001
2410	2411	0.0035	0.0161	0.0025	185	0	0	0	0	1	-60.0001	60.0001
2411	1618	0.0002	0.0005	0.0001	142	0	0	0	0	1	-60.0001	60.0001
2411	1617	0.0006	0.0041	0.0005	219	0	0	0	0	1	-60.0001	60.0001
1617	2412	0.0010	0.0070	0.0008	219	0	0	0	0	1	-60.0001	60.0001
2359	2360	0.2309	0.3688	0.0071	41	0	0	0	0	1	-60.0001	60.0001
2031	2426	0.0017	0.0044	0.0001	64	0	0	0	0	1	-60.0001	60.0001
6724	5593	0.0005	0.0041	0.0001	141	0	0	0	0	1	-60.0001	60.0001
5593	2413	0.0043	0.0158	0.0002	80	0	0	0	0	1	-60.0001	60.0001
2426	6724	0.0012	0.0045	0.0001	80	0	0	0	0	1	-60.0001	60.0001
2414	8021	0.0061	0.0206	0.0011	110.0000	0	0	0	0	1	-60.0001	60.0001
2415	2446	0.0027	0.0120	0.0002	176	0	0	0	0	1	-60.0001	60.0001
2034	2417	0.0002	0.0014	0	141	0	0	0	0	1	-60.0001	60.0001
2436	2416	0.0054	0.0139	0.0002	64	0	0	0	0	1	-60.0001	60.0001
2417	2436	0.0003	0.0008	0	64	0	0	0	0	1	-60.0001	60.0001
2417	2418	0.0053	0.0138	0.0002	64	0	0	0	0	1	-60.0001	60.0001
1867	2034	0.0070	0.0097	0.0004	57.0000	0	0	0	0	1	-60.0001	60.0001
1866	2440	0.0044	0.0086	0.0001	41	0	0	0	0	1	-60.0001	60.0001
2440	2419	0.0113	0.0325	0.0004	64	0	0	0	0	1	-60.0001	60.0001
2420	1866	0.0026	0.0067	0.0001	64	0	0	0	0	1	-60.0001	60.0001
2421	5705	0.0292	0.0231	0.0002	24	0	0	0	0	1	-60.0001	60.0001
5705	2419	0.0016	0.0026	0	78	0	0	0	0	1	-60.0001	60.0001
2422	2423	0.0112	0.0321	0.0004	64	0	0	0	0	1	-60.0001	60.0001
2423	2424	0.0010	0.0033	0.0002	110.0000	0	0	0	0	1	-60.0001	60.0001
2424	2425	0.0022	0.0057	0.0001	64	0	0	0	0	1	-60.0001	60.0001
2425	2032	0.0044	0.0123	0.0002	64	0	0	0	0	1	-60.0001	60.0001
2425	2414	0.0013	0.0034	0.0001	64	0	0	0	0	1	-60.0001	60.0001
2426	2362	0.0097	0.0162	0.0006	64	0	0	0	0	1	-60.0001	60.0001
2427	6726	0.0004	0.0012	0	64	0	0	0	0	1	-60.0001	60.0001
6726	2428	0.0101	0.0261	0.0004	64	0	0	0	0	1	-60.0001	60.0001
2428	2429	0.0015	0.0018	0.0001	82	0	0	0	0	1	-60.0001	60.0001
2429	2430	0.0010	0.0024	0	64	0	0	0	0	1	-60.0001	60.0001
2430	2033	0.0052	0.0136	0.0002	64	0	0	0	0	1	-60.0001	60.0001
2031	2431	0.0142	0.0169	0.0006	82	0	0	0	0	1	-60.0001	60.0001
2431	2432	0.0054	0.0053	0.0001	56.0000	0	0	0	0	1	-60.0001	60.0001
2432	2033	0.0126	0.0118	0.0004	70	0	0	0	0	1	-60.0001	60.0001
1867	2433	0.0072	0.0121	0.0005	64	0	0	0	0	1	-60.0001	60.0001
2434	2435	0.0018	0.0049	0.0001	64	0	0	0	0	1	-60.0001	60.0001
2433	2438	0.0010	0.0021	0	57.0000	0	0	0	0	1	-60.0001	60.0001
2438	2436	0.0169	0.0129	0.0001	24	0	0	0	0	1	-60.0001	60.0001
2437	2438	0.0016	0.0045	0.0001	64	0	0	0	0	1	-60.0001	60.0001
2434	2437	0.0003	0.0006	0	64	0	0	0	0	1	-60.0001	60.0001
2435	2439	0.0005	0.0014	0	64	0	0	0	0	1	-60.0001	60.0001
2440	2420	0.0019	0.0051	0.0001	64	0	0	0	0	1	-60.0001	60.0001
2420	2441	0.0028	0.0080	0.0001	64	0	0	0	0	1	-60.0001	60.0001
2035	2421	0.0033	0.0094	0.0001	64	0	0	0	0	1	-60.0001	60.0001
2441	2442	0.0002	0.0007	0	110.0000	0	0	0	0	1	-60.0001	60.0001
2442	2443	0.0008	0.0021	0	64	0	0	0	0	1	-60.0001	60.0001
2443	2444	0.0002	0.0007	0	110.0000	0	0	0	0	1	-60.0001	60.0001
2444	2445	0.0020	0.0056	0.0001	64	0	0	0	0	1	-60.0001	60.0001
2445	2446	0.0028	0.0096	0.0005	110.0000	0	0	0	0	1	-60.0001	60.0001
2446	2034	0.0003	0.0009	0	110.0000	0	0	0	0	1	-60.0001	60.0001
2447	8021	0.0005	0.0025	0.0002	154	0	0	0	0	1	-60.0001	60.0001
2418	8021	0.0010	0.0033	0.0002	110.0000	0	0	0	0	1	-60.0001	60.0001
2416	8021	0.0008	0.0026	0.0001	110.0000	0	0	0	0	1	-60.0001	60.0001
2363	2364	0.0167	0.0229	0.0008	57.0000	0	0	0	0	1	-60.0001	60.0001
2363	2448	0.0154	0.0212	0.0008	57.0000	0	0	0	0	1	-60.0001	60.0001
2364	2448	0.0009	0.0011	0	82	0	0	0	0	1	-60.0001	60.0001
2448	2449	0.0021	0.0019	0.0001	70	0	0	0	0	1	-60.0001	60.0001
2450	6732	0.0020	0.0033	0.0001	64	0	0	0	0	1	-60.0001	60.0001
6732	5715	0.0008	0.0023	0.0001	92	0	0	0	0	1	-60.0001	60.0001
2451	6731	0.0008	0.0016	0	57.0000	0	0	0	0	1	-60.0001	60.0001
6731	2452	0.0082	0.0155	0.0002	41	0	0	0	0	1	-60.0001	60.0001
2449	2451	0.0005	0.0012	0	64	0	0	0	0	1	-60.0001	60.0001
2451	2452	0.0056	0.0094	0.0004	64	0	0	0	0	1	-60.0001	60.0001
2450	2452	0.0004	0.0012	0.0001	110.0000	0	0	0	0	1	-60.0001	60.0001
2453	2450	0.0160	0.0454	0.0006	64	0	0	0	0	1	-60.0001	60.0001
2454	2453	0.0011	0.0037	0.0002	110.0000	0	0	0	0	1	-60.0001	60.0001
2454	2455	0.0021	0.0070	0.0004	110.0000	0	0	0	0	1	-60.0001	60.0001
2454	2365	0.0010	0.0055	0.0003	308	0	0	0	0	1	-60.0001	60.0001
2455	2456	0.0097	0.0175	0.0002	78	0	0	0	0	1	-60.0001	60.0001
2456	8021	0.0044	0.0150	0.0008	110.0000	0	0	0	0	1	-60.0001	60.0001
2448	2457	0.0112	0.0187	0.0007	64	0	0	0	0	1	-60.0001	60.0001
2457	6733	0.0026	0.0067	0.0001	64	0	0	0	0	1	-60.0001	60.0001
6733	2458	0.0042	0.0087	0.0001	57.0000	0	0	0	0	1	-60.0001	60.0001
2439	1868	0.0007	0.0007	0	70	0	0	0	0	1	-60.0001	60.0001
5699	2032	0.0102	0.0224	0.0010	80	0	0	0	0	1	-60.0001	60.0001
2459	780	0.0032	0.0543	0.1922	1023	0	0	0	0	1	-60.0001	60.0001
8185	2459	0.0009	0.0122	0.0243	1158	0	0	0	0	1	-60.0001	60.0001
8204	8522	0.0151	0.0982	0.1965	366	0	0	0	0	1	-60.0001	60.0001
2385	2460	0.0045	0.0044	0.0001	30	0	0	0	0	1	-60.0001	60.0001
2465	2461	0.0118	0.0180	0.0002	35	0	0	0	0	1	-60.0001	60.0001
6742	2465	0.0753	0.0590	0.0006	24	0	0	0	0	1	-60.0001	60.0001
2461	2387	0.0003	0.0003	0	30	0	0	0	0	1	-60.0001	60.0001
2460	6742	0.0880	0.0865	0.0012	30	0	0	0	0	1	-60.0001	60.0001
2460	2462	0.0190	0.0149	0.0002	24	0	0	0	0	1	-60.0001	60.0001
2462	2386	0.0163	0.0171	0.0002	30	0	0	0	0	1	-60.0001	60.0001
2461	2463	0.0093	0.0073	0.0001	24	0	0	0	0	1	-60.0001	60.0001
2463	2462	0.0027	0.0049	0.0001	41	0	0	0	0	1	-60.0001	60.0001
2463	2464	0.0215	0.0386	0.0006	41	0	0	0	0	1	-60.0001	60.0001
2475	2469	0.0280	0.0203	0.0003	24	0	0	0	0	1	-60.0001	60.0001
2471	2394	0.0006	0.0004	0	24	0	0	0	0	1	-60.0001	60.0001
2471	2470	0.0011	0.0008	0	24	0	0	0	0	1	-60.0001	60.0001
2469	2470	0.0027	0.0037	0.0001	35	0	0	0	0	1	-60.0001	60.0001
2464	2475	0.0055	0.0118	0.0002	57.0000	0	0	0	0	1	-60.0001	60.0001
2464	2391	0.0040	0.0057	0.0001	35	0	0	0	0	1	-60.0001	60.0001
2465	2466	0.0111	0.0111	0.0002	30	0	0	0	0	1	-60.0001	60.0001
2466	2388	0.0018	0.0037	0.0001	57.0000	0	0	0	0	1	-60.0001	60.0001
2466	2467	0.0098	0.0191	0.0002	41	0	0	0	0	1	-60.0001	60.0001
2467	2391	0.0046	0.0047	0.0001	30	0	0	0	0	1	-60.0001	60.0001
2467	2468	0.0099	0.0186	0.0003	41	0	0	0	0	1	-60.0001	60.0001
2468	2392	0.0006	0.0004	0	24	0	0	0	0	1	-60.0001	60.0001
2468	2469	0.0115	0.0175	0.0002	35	0	0	0	0	1	-60.0001	60.0001
2470	2393	0.0071	0.0104	0.0001	35	0	0	0	0	1	-60.0001	60.0001
2397	2477	0.0009	0.0009	0	30	0	0	0	0	1	-60.0001	60.0001
2477	2396	0.0130	0.0181	0.0003	35	0	0	0	0	1	-60.0001	60.0001
2396	2472	0.0121	0.0239	0.0003	41	0	0	0	0	1	-60.0001	60.0001
2472	2395	0.0005	0.0014	0	64	0	0	0	0	1	-60.0001	60.0001
2472	2474	0.0007	0.0013	0	41	0	0	0	0	1	-60.0001	60.0001
2474	2473	0.0207	0.0150	0.0002	24	0	0	0	0	1	-60.0001	60.0001
2474	2471	0.0055	0.0150	0.0002	64	0	0	0	0	1	-60.0001	60.0001
2475	2473	0.0230	0.0253	0.0003	30	0	0	0	0	1	-60.0001	60.0001
2476	2390	0.0040	0.0029	0	24	0	0	0	0	1	-60.0001	60.0001
2473	2476	0.0114	0.0227	0.0003	41	0	0	0	0	1	-60.0001	60.0001
2476	2389	0.0065	0.0068	0.0001	30	0	0	0	0	1	-60.0001	60.0001
2477	2272	0.0328	0.0643	0.0008	41	0	0	0	0	1	-60.0001	60.0001
8619	2330	0.0004	0.0006	0	35	0	0	0	0	1	-60.0001	60.0001
2330	8563	0.0282	0.0552	0.0007	41	0	0	0	0	1	-60.0001	60.0001
2478	1446	0.0210	0.0618	0.0069	256	0	0	0	0	1	-60.0001	60.0001
2479	1446	0.0006	0.0040	0.0005	219	0	0	0	0	1	-60.0001	60.0001
2480	1446	0.0015	0.0044	0.0005	128	0	0	0	0	1	-60.0001	60.0001
2481	2487	0.0809	0.2036	0.0255	118	0	0	0	0	1	-60.0001	60.0001
2487	2486	0	0.0001	0	118	0	0	0	0	1	-60.0001	60.0001
2486	2482	0.0134	0.0344	0.0041	118	0	0	0	0	1	-60.0001	60.0001
8444	2478	0.0295	0.0795	0.0108	256	0	0	0	0	1	-60.0001	60.0001
8444	2483	0.0289	0.0786	0.0084	118	0	0	0	0	1	-60.0001	60.0001
2484	2489	0.0140	0.0580	0.0066	318	0	0	0	0	1	-60.0001	60.0001
2489	8336	0.0892	0.2296	0.0275	118	0	0	0	0	1	-60.0001	60.0001
1446	2485	0.0024	0.0090	0.0012	159	0	0	0	0	1	-60.0001	60.0001
8000	2486	0.0008	0.0027	0.0004	142	0	0	0	0	1	-60.0001	60.0001
8000	2487	0.0011	0.0027	0.0003	118	0	0	0	0	1	-60.0001	60.0001
2488	2489	0.0007	0.0033	0.0004	175	0	0	0	0	1	-60.0001	60.0001
8234	8486	0.0061	0.0424	0.0752	732	0	0	0	0	1	-60.0001	60.0001
778	2528	0	0.0002	0	175	0	0	0	0	1	-60.0001	60.0001
2618	775	0	0.0001	0	250	0	0	0	0	1	-60.0001	60.0001
2534	2500	0.0016	0.0135	0.0038	437	0	0	0	0	1	-60.0001	60.0001
2528	2534	0.0065	0.0323	0.0045	191	0	0	0	0	1	-60.0001	60.0001
2500	2618	0.0078	0.0501	0.0063	219	0	0	0	0	1	-60.0001	60.0001
8328	2622	0.0035	0.0247	0.0421	732	0	0	0	0	1	-60.0001	60.0001
2622	8486	0	0.0001	0.0002	383	0	0	0	0	1	-60.0001	60.0001
7753	2498	0.0121	0.1039	0.0143	261	0	0	0	0	1	-60.0001	60.0001
2498	1718	0.0145	0.0406	0.0041	118	0	0	0	0	1	-60.0001	60.0001
203	2538	0.0003	0.0022	0.0008	437	0	0	0	0	1	-60.0001	60.0001
2546	2490	0.0051	0.0250	0.0033	185	0	0	0	0	1	-60.0001	60.0001
2538	2546	0.0040	0.0132	0.0017	142	0	0	0	0	1	-60.0001	60.0001
2491	2575	0.0053	0.0278	0.0035	191	0	0	0	0	1	-60.0001	60.0001
2575	8306	0.0217	0.0606	0.0061	118	0	0	0	0	1	-60.0001	60.0001
2542	2492	0.0022	0.0085	0.0011	159	0	0	0	0	1	-60.0001	60.0001
8306	2542	0.0004	0.0041	0.0013	523	0	0	0	0	1	-60.0001	60.0001
2491	8329	0.0001	0.0009	0.0003	381	0	0	0	0	1	-60.0001	60.0001
8235	198	0.0449	0.2899	0.0367	219	0	0	0	0	1	-60.0001	60.0001
7753	7611	0.0003	0.0018	0.0003	250	0	0	0	0	1	-60.0001	60.0001
7611	2619	0.0615	0.3978	0.0505	177.7552	0	0	0	0	1	-60.0001	60.0001
2619	8235	0.0045	0.0364	0.0049	250	0	0	0	0	1	-60.0001	60.0001
200	8141	0.1228	0.0942	0.0011	24	0	0	0	0	1	-60.0001	60.0001
8487	2611	0.0114	0.0390	0.0045	142	0	0	0	0	1	-60.0001	60.0001
2611	2493	0.0127	0.0319	0.0040	118	0	0	0	0	1	-60.0001	60.0001
2494	198	0.0112	0.0376	0.0045	142	0	0	0	0	1	-60.0001	60.0001
2494	7753	0.0279	0.1718	0.0239	219	0	0	0	0	1	-60.0001	60.0001
198	8768	0.0453	0.3534	0.0444	200.0734	0	0	0	0	1	-60.0001	60.0001
205	2506	0.0110	0.1004	0.0122	261	0	0	0	0	1	-60.0001	60.0001
2506	1043	0.0205	0.0639	0.0064	128	0	0	0	0	1	-60.0001	60.0001
2495	2496	0.0031	0.0080	0.0012	128	0	0	0	0	1	-60.0001	60.0001
1718	1528	0.0473	0.1801	0.0243	159	0	0	0	0	1	-60.0001	60.0001
7765	2408	0.0109	0.0288	0.0033	118	0	0	0	0	1	-60.0001	60.0001
7765	2497	0.0016	0.0123	0.0018	250	0	0	0	0	1	-60.0001	60.0001
2497	2498	0.0774	0.2173	0.0270	128	0	0	0	0	1	-60.0001	60.0001
196	2497	0.0004	0.0055	0.0007	347	0	0	0	0	1	-60.0001	60.0001
2499	2617	0.0023	0.0062	0.0001	64	0	0	0	0	1	-60.0001	60.0001
2617	8305	0.0323	0.0928	0.0012	64	0	0	0	0	1	-60.0001	60.0001
7764	195	0.1398	0.2768	0.0034	41	0	0	0	0	1	-60.0001	60.0001
2500	2501	0.0002	0.0004	0.0001	118	0	0	0	0	1	-60.0001	60.0001
777	2523	0.0190	0.1012	0.0113	185	0	0	0	0	1	-60.0001	60.0001
2523	2521	0.0037	0.0206	0.0030	205.0000	0	0	0	0	1	-60.0001	60.0001
2521	1872	0	0.0003	0	250	0	0	0	0	1	-60.0001	60.0001
8235	774	0.0136	0.0453	0.0055	142	0	0	0	0	1	-60.0001	60.0001
196	2502	0.0011	0.0066	0.0011	219	0	0	0	0	1	-60.0001	60.0001
1718	2503	0.0123	0.0317	0.0038	118	0	0	0	0	1	-60.0001	60.0001
2503	1719	0	0.0002	0	175	0	0	0	0	1	-60.0001	60.0001
2503	194	0.0116	0.0301	0.0044	128	0	0	0	0	1	-60.0001	60.0001
1872	2504	0.0022	0.0059	0.0007	118	0	0	0	0	1	-60.0001	60.0001
2504	8235	0.0014	0.0070	0.0009	370	0	0	0	0	1	-60.0001	60.0001
8234	2505	0.0008	0.0107	0.0364	834	0	0	0	0	1	-60.0001	60.0001
202	182	0.0127	0.0660	0.0083	191	0	0	0	0	1	-60.0001	60.0001
182	2506	0.0056	0.0385	0.0054	230.0000	0	0	0	0	1	-60.0001	60.0001
2507	1869	0.0013	0.0095	0.0016	250	0	0	0	0	1	-60.0001	60.0001
771	5545	0.0001	0.0003	0	175	0	0	0	0	1	-60.0001	60.0001
5545	5543	0.0008	0.0065	0.0009	261	0	0	0	0	1	-60.0001	60.0001
5543	5527	0.0013	0.0108	0.0016	261	0	0	0	0	1	-60.0001	60.0001
5527	2507	0.0040	0.0297	0.0035	230.0000	0	0	0	0	1	-60.0001	60.0001
2507	1525	0	0.0002	0	142	0	0	0	0	1	-60.0001	60.0001
1869	2508	0.0028	0.0237	0.0029	250	0	0	0	0	1	-60.0001	60.0001
2508	2509	0.0011	0.0068	0.0009	219	0	0	0	0	1	-60.0001	60.0001
2509	2028	0	0.0002	0	175	0	0	0	0	1	-60.0001	60.0001
2509	2526	0.0012	0.0080	0.0024	381	0	0	0	0	1	-60.0001	60.0001
2526	2511	0.0006	0.0014	0.0002	118	0	0	0	0	1	-60.0001	60.0001
2511	2510	0.0001	0.0001	0	118	0	0	0	0	1	-60.0001	60.0001
2511	2519	0.0009	0.0029	0.0004	142	0	0	0	0	1	-60.0001	60.0001
2519	2512	0.0010	0.0105	0.0016	317	0	0	0	0	1	-60.0001	60.0001
...
];

%%-----  OPF Data  -----%%
%% cost data
%    1    startup    shutdown    n    x1    y1    ...    xn    yn
%    2    startup    shutdown    n    c(n-1)    ...    c0
mpc.gencost = [
	2	0.0	0.0	3	0.05917235500000001	14.8788144	46.4995731
	2	0.0	0.0	3	0.082991653	44.9151794	1427.41303
	2	0.0	0.0	3	0.082991653	44.9151794	1427.41303
	2	0.0	0.0	3	0.07872443200000001	14.8788144	34.6467874
	2	0.0	0.0	3	0.07872443200000001	14.8788144	34.6467874
	2	0.0	0.0	3	0.07872443200000001	14.8788144	34.6467874
	2	0.0	0.0	3	0.07872443200000001	14.8788144	34.6467874
	2	0.0	0.0	3	0.07872443200000001	14.8788144	34.6467874
	2	0.0	0.0	3	0.07872443200000001	14.8788144	34.6467874
	2	0.0	0.0	3	0.07872443200000001	14.8788144	34.6467874
	2	0.0	0.0	3	0.07872443200000001	14.8788144	34.6467874
	2	0.0	0.0	3	0.019693715	14.8788144	138.645776
	2	0.0	0.0	3	0.073985797	14.8788144	36.8238805
	2	0.0	0.0	3	0.073985797	14.8788144	36.8238805
	2	0.0	0.0	3	0.061429747	14.8788144	44.2781598
	2	0.0	0.0	3	0.10217834800000002	14.8788144	26.4292728
	2	0.0	0.0	3	0.101288764	14.8788144	27.9399979
	2	0.0	0.0	3	0.101288764	14.8788144	27.9399979
	2	0.0	0.0	3	0.04009894	14.8788144	68.1855659
	2	0.0	0.0	3	0.042766954	14.8788144	64.0300345
	2	0.0	0.0	3	0.05917235500000001	14.8788144	46.4995731
	2	0.0	0.0	3	0.07872443200000001	14.8788144	34.6467874
	2	0.0	0.0	3	0.07872443200000001	14.8788144	34.6467874
	2	0.0	0.0	3	0.049901925	14.8788144	55.0498039
	2	0.0	0.0	3	0.049901925	14.8788144	55.0498039
	2	0.0	0.0	3	0.049901925	14.8788144	55.0498039
	2	0.0	0.0	3	0.049901925	14.8788144	55.0498039
	2	0.0	0.0	3	0.111	14.8788144	24.5526988
	2	0.0	0.0	3	0.120339515	14.8788144	22.3377955
	2	0.0	0.0	3	0.120339515	14.8788144	22.3377955
	2	0.0	0.0	3	0.075886016	14.8788144	36.1349397
	2	0.0	0.0	3	0.0694	14.8788144	39.3959214
	2	0.0	0.0	3	0.0694	14.8788144	39.3959214
	2	0.0	0.0	3	0.036962208	14.8788144	75.8585367
	2	0.0	0.0	3	0.036962208	14.8788144	75.8585367
	2	0.0	0.0	3	0.05917235500000001	14.8788144	46.4995731
	2	0.0	0.0	3	0.08577220500000002	14.8788144	32.0494007
	2	0.0	0.0	3	0.08577220500000002	14.8788144	32.0494007
	2	0.0	0.0	3	0.074347899	14.8788144	36.540858
	2	0.0	0.0	3	0.074347899	14.8788144	36.540858
	2	0.0	0.0	3	0.018728377	6.603145	74.6992503
	2	0.0	0.0	3	0.018728377	6.603145	74.6992503
	2	0.0	0.0	3	0.018728377	6.603145	74.6992503
	2	0.0	0.0	3	0.018728377	6.603145	74.6992503
	2	0.0	0.0	3	0.018728377	6.603145	74.6992503
	2	0.0	0.0	3	0.018728377	6.603145	74.6992503
	2	0.0	0.0	3	0.018728377	6.603145	74.6992503
	2	0.0	0.0	3	0.018728377	6.603145	74.6992503
	2	0.0	0.0	3	0.018728377	6.603145	74.6992503
	2	0.0	0.0	3	0.018728377	6.603145	74.6992503
	2	0.0	0.0	3	0.104841048	14.8788144	26.2074855
	2	0.0	0.0	3	0.028656809	14.8788144	93.6100229
	2	0.0	0.0	3	0.028941569	14.8788144	92.6227225
	2	0.0	0.0	3	0.0723	14.8788144	37.8334767
	2	0.0	0.0	3	0.0723	14.8788144	37.8334767
	2	0.0	0.0	3	0.08577220500000002	14.8788144	32.0494007
	2	0.0	0.0	3	0.104841048	14.8788144	26.2074855
	2	0.0	0.0	3	0.022715841	13.4742144	878.874372
	2	0.0	0.0	3	0.022715841	13.4742144	878.874372
	2	0.0	0.0	3	0.022715841	13.4742144	878.874372
	2	0.0	0.0	3	0.022715841	13.4742144	878.874372
	2	0.0	0.0	3	0.022715841	13.4742144	878.874372
	2	0.0	0.0	3	0.022715841	13.4742144	878.874372
	2	0.0	0.0	3	0.104841048	14.8788144	26.2074855
	2	0.0	0.0	3	0.104841048	14.8788144	26.2074855
	2	0.0	0.0	3	0.071284546	14.8788144	38.3182174
	2	0.0	0.0	3	0.071284546	14.8788144	38.3182174
	2	0.0	0.0	3	0.04688997300000001	14.8788144	58.4255407
	2	0.0	0.0	3	0.04688997300000001	14.8788144	58.4255407
	2	0.0	0.0	3	0.06482093900000001	14.8788144	42.9634433
	2	0.0	0.0	3	0.06482093900000001	14.8788144	42.9634433
	2	0.0	0.0	3	0.072573362	14.8788144	37.387899
	2	0.0	0.0	3	0.077414674	14.8788144	35.1771382
	2	0.0	0.0	3	0.06166288100000001	14.8788144	44.2065545
	2	0.0	0.0	3	0.06166288100000001	14.8788144	44.2065545
	2	0.0	0.0	3	0.104841048	14.8788144	26.2074855
	2	0.0	0.0	3	0.104841048	14.8788144	26.2074855
	2	0.0	0.0	3	0.104841048	14.8788144	26.2074855
	2	0.0	0.0	3	0.038074342	14.8788144	70.2258381
	2	0.0	0.0	3	0.038074342	14.8788144	70.2258381
	2	0.0	0.0	3	0.05917235500000001	14.8788144	46.4995731
	2	0.0	0.0	3	0.086915976	14.8788144	31.8308439
	2	0.0	0.0	3	0.104841048	14.8788144	26.2074855
	2	0.0	0.0	3	0.104841048	14.8788144	26.2074855
	2	0.0	0.0	3	0.104841048	14.8788144	26.2074855
	2	0.0	0.0	3	0.104841048	14.8788144	26.2074855
	2	0.0	0.0	3	0.104841048	14.8788144	26.2074855
	2	0.0	0.0	3	0.029100238000000004	14.8788144	92.597236
	2	0.0	0.0	3	0.099944554	14.8788144	28.3536743
	2	0.0	0.0	3	0.09211254100000002	14.8788144	29.1721955
	2	0.0	0.0	3	0.104841048	14.8788144	26.2074855
	2	0.0	0.0	3	0.104841048	14.8788144	26.2074855
	2	0.0	0.0	3	0.104841048	14.8788144	26.2074855
	2	0.0	0.0	3	0.05917235500000001	14.8788144	46.4995731
	2	0.0	0.0	3	0.05917235500000001	14.8788144	46.4995731
	2	0.0	0.0	3	0.104841048	14.8788144	26.2074855
	2	0.0	0.0	3	0.11698962300000001	14.8788144	22.8253546
	2	0.0	0.0	3	0.11698962300000001	14.8788144	22.8253546
	2	0.0	0.0	3	0.091189607	14.8788144	29.439354
	2	0.0	0.0	3	0.091189607	14.8788144	29.439354
	2	0.0	0.0	3	0.07872443200000001	14.8788144	34.6467874
	2	0.0	0.0	3	0.07872443200000001	14.8788144	34.6467874
	2	0.0	0.0	3	0.08577220500000002	14.8788144	32.0494007
	2	0.0	0.0	3	0.11614112700000001	14.8788144	23.3042834
	2	0.0	0.0	3	0.08577220500000002	14.8788144	32.0494007
	2	0.0	0.0	3	0.08577220500000002	14.8788144	32.0494007
	2	0.0	0.0	3	0.0069886	21.363000000000003	796.7
	2	0.0	0.0	3	0.0069886	21.363000000000003	796.7
	2	0.0	0.0	3	0.0038575	21.025000000000002	1184.1
	2	0.0	0.0	3	0.037223309	14.8788144	73.1903316
	2	0.0	0.0	3	0.037223309	14.8788144	73.1903316
	2	0.0	0.0	3	0.037223309	14.8788144	73.1903316
	2	0.0	0.0	3	0.037223309	14.8788144	73.1903316
	2	0.0	0.0	3	0.071691417	14.8788144	37.8341532
	2	0.0	0.0	3	0.071691417	14.8788144	37.8341532
	2	0.0	0.0	3	0.071691417	14.8788144	37.8341532
	2	0.0	0.0	3	0.069262499	14.8788144	40.2238612
	2	0.0	0.0	3	0.068331642	14.8788144	40.5167447
	2	0.0	0.0	3	0.084180748	14.8788144	32.3543419
	2	0.0	0.0	3	0.055647865000000005	14.8788144	50.8170056
	2	0.0	0.0	3	0.045149640000000005	14.8788144	62.1292896
	2	0.0	0.0	3	0.045149640000000005	14.8788144	62.1292896
	2	0.0	0.0	3	0.08577220500000002	14.8788144	32.0494007
	2	0.0	0.0	3	0.08577220500000002	14.8788144	32.0494007
	2	0.0	0.0	3	0.07872443200000001	14.8788144	34.6467874
	2	0.0	0.0	3	0.104841048	14.8788144	26.2074855
	2	0.0	0.0	3	0.104841048	14.8788144	26.2074855
	2	0.0	0.0	3	0.104841048	14.8788144	26.2074855
	2	0.0	0.0	3	0.08577220500000002	14.8788144	32.0494007
	2	0.0	0.0	3	0.08577220500000002	14.8788144	32.0494007
	2	0.0	0.0	3	0.07872443200000001	14.8788144	34.6467874
	2	0.0	0.0	3	0.07872443200000001	14.8788144	34.6467874
	2	0.0	0.0	3	0.07872443200000001	14.8788144	34.6467874
	2	0.0	0.0	3	0.07872443200000001	14.8788144	34.6467874
	2	0.0	0.0	3	0.08577220500000002	14.8788144	32.0494007
	2	0.0	0.0	3	0.07872443200000001	14.8788144	34.6467874
	2	0.0	0.0	3	0.08577220500000002	14.8788144	32.0494007
	2	0.0	0.0	3	0.08577220500000002	14.8788144	32.0494007
	2	0.0	0.0	3	0.104841048	14.8788144	26.2074855
	2	0.0	0.0	3	0.07872443200000001	14.8788144	34.6467874
	2	0.0	0.0	3	0.07872443200000001	14.8788144	34.6467874
	2	0.0	0.0	3	0.009741200000000002	21.909000000000002	600.51
	2	0.0	0.0	3	0.07872443200000001	14.8788144	34.6467874
	2	0.0	0.0	3	0.11494648400000002	14.8788144	23.7075931
	2	0.0	0.0	3	0.11614112700000001	14.8788144	23.3042834
	2	0.0	0.0	3	0.092849808	14.8788144	29.1025112
	2	0.0	0.0	3	0.092849808	14.8788144	29.1025112
	2	0.0	0.0	3	0.092849808	14.8788144	29.1025112
	2	0.0	0.0	3	0.092849808	14.8788144	29.1025112
	2	0.0	0.0	3	0.065960886	14.1545215	301.435141
	2	0.0	0.0	3	0.065960886	14.1545215	301.435141
	2	0.0	0.0	3	0.065960886	14.1545215	301.435141
	2	0.0	0.0	3	0.065960886	14.1545215	301.435141
	2	0.0	0.0	3	0.025798991000000004	14.8788144	105.8405
	2	0.0	0.0	3	0.025798991000000004	14.8788144	105.8405
	2	0.0	0.0	3	0.0028305	19.79	2076.3
	2	0.0	0.0	3	0.0028305	19.79	2076.3
	2	0.0	0.0	3	0.05917235500000001	14.8788144	46.4995731
	2	0.0	0.0	3	0.013315533	22.6772275	469.549327
	2	0.0	0.0	3	0.013315533	22.6772275	469.549327
	2	0.0	0.0	3	0.003724619	21.031305	1187.18678
	2	0.0	0.0	3	0.104841048	14.8788144	26.2074855
	2	0.0	0.0	3	0.104841048	14.8788144	26.2074855
	2	0.0	0.0	3	0.0074607760000000006	9.85465117	2635.89483
	2	0.0	0.0	3	0.0074607760000000006	9.85465117	2635.89483
	2	0.0	0.0	3	0.02801483	13.5442631	714.197795
	2	0.0	0.0	3	0.0074607760000000006	9.85465117	2635.89483
	2	0.0	0.0	3	0.0074607760000000006	9.85465117	2635.89483
	2	0.0	0.0	3	0.02801483	13.5442631	714.197795
	2	0.0	0.0	3	0.07872443200000001	14.8788144	34.6467874
	2	0.0	0.0	3	0.07872443200000001	14.8788144	34.6467874
	2	0.0	0.0	3	0.07872443200000001	14.8788144	34.6467874
	2	0.0	0.0	3	0.07872443200000001	14.8788144	34.6467874
	2	0.0	0.0	3	0.07872443200000001	14.8788144	34.6467874
	2	0.0	0.0	3	0.07872443200000001	14.8788144	34.6467874
	2	0.0	0.0	3	0.104841048	14.8788144	26.2074855
	2	0.0	0.0	3	0.104841048	14.8788144	26.2074855
	2	0.0	0.0	3	0.104841048	14.8788144	26.2074855
	2	0.0	0.0	3	0.11955343	16.3717119	230.144388
	2	0.0	0.0	3	0.11955343	16.3717119	230.144388
	2	0.0	0.0	3	0.25325	58.907	173.53
	2	0.0	0.0	3	0.063206218	25.1702183	164.808375
	2	0.0	0.0	3	0.063206218	25.1702183	164.808375
	2	0.0	0.0	3	0.025784945	9.8240636	475.10697
	2	0.0	0.0	3	0.011886341	9.82406397	1030.64543
	2	0.0	0.0	3	0.05912255200000001	14.495962	290.065816
	2	0.0	0.0	3	0.031561893	14.8788144	86.1224701
	2	0.0	0.0	3	0.031561893	14.8788144	86.1224701
	2	0.0	0.0	3	0.062200000000000005	14.8788144	43.9716516
	2	0.0	0.0	3	0.062200000000000005	14.8788144	43.9716516
	2	0.0	0.0	3	0.068314762	14.8788144	40.6511526
	2	0.0	0.0	3	0.104841048	14.8788144	26.2074855
	2	0.0	0.0	3	0.104841048	14.8788144	26.2074855
	2	0.0	0.0	3	0.104841048	14.8788144	26.2074855
	2	0.0	0.0	3	0.104841048	14.8788144	26.2074855
	2	0.0	0.0	3	0.074347899	14.8788144	36.540858
	2	0.0	0.0	3	0.074347899	14.8788144	36.540858
	2	0.0	0.0	3	0.073726559	14.8788144	37.2572181
	2	0.0	0.0	3	0.073726559	14.8788144	37.2572181
	2	0.0	0.0	3	0.066698734	16.3717118	411.887105
...
];

